/*---------------------------------------------------------------------------*\
| =========                 |                                                 |
| \\      /  F ield         | OpenFOAM: The Open Source CFD Toolbox           |
|  \\    /   O peration     | Version:  v2012                                 |
|   \\  /    A nd           | Website:  www.openfoam.com                      |
|    \\/     M anipulation  |                                                 |
\*---------------------------------------------------------------------------*/
Build  : _7bdb509494-20201222 OPENFOAM=2012
Arch   : "LSB;label=32;scalar=64"
Exec   : simpleFoam
Date   : Mar 23 2025
Time   : 00:25:08
Host   : Taupok
PID    : 3233
I/O    : uncollated
Case   : /mnt/c/Users/lowjo/OneDrive/Desktop/ASTAR/DASH/testLaminarFlatPlate
nProcs : 1
trapFpe: Floating point exception trapping enabled (FOAM_SIGFPE).
fileModificationChecking : Monitoring run-time modified files using timeStampMaster (fileModificationSkew 5, maxFileModificationPolls 20)
allowSystemOperations : Allowing user-supplied system call operations

// * * * * * * * * * * * * * * * * * * * * * * * * * * * * * * * * * * * * * //
Create time

Create mesh for time = 0


SIMPLE: no convergence criteria found. Calculations will run for 60 steps.

Reading field p

Reading field U

Reading/calculating face flux field phi

Selecting incompressible transport model Newtonian
Selecting turbulence model type laminar
Selecting laminar stress model Stokes
No MRF models present

No finite volume options present

Starting time loop

wallShearStress wallShearStress:
    processing all wall patches

Time = 0.01

smoothSolver:  Solving for Ux, Initial residual = 1, Final residual = 0.00268637, No Iterations 1
smoothSolver:  Solving for Uy, Initial residual = 1, Final residual = 0.00161305, No Iterations 1
GAMG:  Solving for p, Initial residual = 1, Final residual = 0.0853077, No Iterations 10
time step continuity errors : sum local = 1.74738e-06, global = -1.22582e-07, cumulative = -1.22582e-07
ExecutionTime = 4.01 s  ClockTime = 6 s

fieldMinMax minMax write:
    min(mag(U)) = 0 in cell 36960 at location (0.000485708 0 0.05)
    max(mag(U)) = 69.4093 in cell 39565 at location (1.00567 0.00280414 0.05)

Time = 0.02

smoothSolver:  Solving for Ux, Initial residual = 0.140223, Final residual = 0.000620434, No Iterations 1
smoothSolver:  Solving for Uy, Initial residual = 0.39292, Final residual = 0.00167426, No Iterations 1
GAMG:  Solving for p, Initial residual = 0.00196538, Final residual = 0.000188102, No Iterations 4
time step continuity errors : sum local = 2.36668e-06, global = -2.22598e-07, cumulative = -3.45181e-07
ExecutionTime = 4.47 s  ClockTime = 7 s

fieldMinMax minMax write:
    min(mag(U)) = 0 in cell 36960 at location (0.000485708 0 0.05)
    max(mag(U)) = 69.5415 in cell 37419 at location (0.0103153 0.000754334 0.05)

Time = 0.03

smoothSolver:  Solving for Ux, Initial residual = 0.0735509, Final residual = 0.00040574, No Iterations 1
smoothSolver:  Solving for Uy, Initial residual = 0.225085, Final residual = 0.000939558, No Iterations 1
GAMG:  Solving for p, Initial residual = 0.00173332, Final residual = 0.00014255, No Iterations 4
time step continuity errors : sum local = 1.86594e-06, global = -6.01662e-08, cumulative = -4.05347e-07
ExecutionTime = 4.92 s  ClockTime = 7 s

fieldMinMax minMax write:
    min(mag(U)) = 0 in cell 36960 at location (0.000485708 0 0.05)
    max(mag(U)) = 69.7474 in cell 37422 at location (0.0133096 0.000754334 0.05)

Time = 0.04

smoothSolver:  Solving for Ux, Initial residual = 0.0484713, Final residual = 0.000322217, No Iterations 1
smoothSolver:  Solving for Uy, Initial residual = 0.156901, Final residual = 0.000650682, No Iterations 1
GAMG:  Solving for p, Initial residual = 0.00160919, Final residual = 8.13485e-05, No Iterations 5
time step continuity errors : sum local = 1.07546e-06, global = 1.65927e-07, cumulative = -2.3942e-07
ExecutionTime = 5.43 s  ClockTime = 8 s

fieldMinMax minMax write:
    min(mag(U)) = 0 in cell 36960 at location (0.000485708 0 0.05)
    max(mag(U)) = 69.9855 in cell 37425 at location (0.0163252 0.000754334 0.05)

Time = 0.05

smoothSolver:  Solving for Ux, Initial residual = 0.0352002, Final residual = 0.000275252, No Iterations 1
smoothSolver:  Solving for Uy, Initial residual = 0.119504, Final residual = 0.000486817, No Iterations 1
GAMG:  Solving for p, Initial residual = 0.00155409, Final residual = 0.000134397, No Iterations 4
time step continuity errors : sum local = 1.7529e-06, global = 9.28955e-08, cumulative = -1.46525e-07
ExecutionTime = 5.88 s  ClockTime = 8 s

fieldMinMax minMax write:
    min(mag(U)) = 0 in cell 36960 at location (0.000485708 0 0.05)
    max(mag(U)) = 70.2361 in cell 37429 at location (0.0203793 0.000754334 0.05)

Time = 0.06

smoothSolver:  Solving for Ux, Initial residual = 0.0269608, Final residual = 0.000243293, No Iterations 1
smoothSolver:  Solving for Uy, Initial residual = 0.0951571, Final residual = 0.000380418, No Iterations 1
GAMG:  Solving for p, Initial residual = 0.00168416, Final residual = 0.000123108, No Iterations 4
time step continuity errors : sum local = 1.56278e-06, global = 2.30793e-07, cumulative = 8.42687e-08
ExecutionTime = 6.34 s  ClockTime = 9 s

fieldMinMax minMax write:
    min(mag(U)) = 0 in cell 36960 at location (0.000485708 0 0.05)
    max(mag(U)) = 70.4901 in cell 37432 at location (0.0234451 0.000754334 0.05)

Time = 0.07

smoothSolver:  Solving for Ux, Initial residual = 0.0215014, Final residual = 0.00021883, No Iterations 1
smoothSolver:  Solving for Uy, Initial residual = 0.0782807, Final residual = 0.000303871, No Iterations 1
GAMG:  Solving for p, Initial residual = 0.00172101, Final residual = 0.000125995, No Iterations 4
time step continuity errors : sum local = 1.55693e-06, global = 3.05448e-07, cumulative = 3.89717e-07
ExecutionTime = 6.79 s  ClockTime = 9 s

fieldMinMax minMax write:
    min(mag(U)) = 0 in cell 36960 at location (0.000485708 0 0.05)
    max(mag(U)) = 70.7406 in cell 37436 at location (0.0275667 0.000754334 0.05)

Time = 0.08

smoothSolver:  Solving for Ux, Initial residual = 0.0176916, Final residual = 0.000198337, No Iterations 1
smoothSolver:  Solving for Uy, Initial residual = 0.0659832, Final residual = 0.000246634, No Iterations 1
GAMG:  Solving for p, Initial residual = 0.00178013, Final residual = 0.000142812, No Iterations 4
time step continuity errors : sum local = 1.7182e-06, global = 3.87643e-07, cumulative = 7.7736e-07
ExecutionTime = 7.24 s  ClockTime = 9 s

fieldMinMax minMax write:
    min(mag(U)) = 0 in cell 36960 at location (0.000485708 0 0.05)
    max(mag(U)) = 70.9833 in cell 37439 at location (0.0306834 0.000754334 0.05)

Time = 0.09

smoothSolver:  Solving for Ux, Initial residual = 0.0148758, Final residual = 0.000180076, No Iterations 1
smoothSolver:  Solving for Uy, Initial residual = 0.0566555, Final residual = 0.000203012, No Iterations 1
GAMG:  Solving for p, Initial residual = 0.00180776, Final residual = 0.000158749, No Iterations 4
time step continuity errors : sum local = 1.85455e-06, global = 3.91e-07, cumulative = 1.16836e-06
ExecutionTime = 7.69 s  ClockTime = 10 s

fieldMinMax minMax write:
    min(mag(U)) = 0 in cell 36960 at location (0.000485708 0 0.05)
    max(mag(U)) = 71.2166 in cell 37443 at location (0.0348736 0.000754334 0.05)

Time = 0.1

smoothSolver:  Solving for Ux, Initial residual = 0.0127034, Final residual = 0.0001635, No Iterations 1
smoothSolver:  Solving for Uy, Initial residual = 0.0493419, Final residual = 0.000171059, No Iterations 1
GAMG:  Solving for p, Initial residual = 0.0018396, Final residual = 0.000158904, No Iterations 4
time step continuity errors : sum local = 1.80036e-06, global = 3.67913e-07, cumulative = 1.53627e-06
ExecutionTime = 8.13 s  ClockTime = 10 s

fieldMinMax minMax write:
    min(mag(U)) = 0 in cell 36960 at location (0.000485708 0 0.05)
    max(mag(U)) = 71.4374 in cell 37447 at location (0.0391034 0.000754334 0.05)

Time = 0.11

smoothSolver:  Solving for Ux, Initial residual = 0.0109915, Final residual = 0.000148418, No Iterations 1
smoothSolver:  Solving for Uy, Initial residual = 0.0435557, Final residual = 0.000149406, No Iterations 1
GAMG:  Solving for p, Initial residual = 0.0018415, Final residual = 0.000152495, No Iterations 4
time step continuity errors : sum local = 1.6776e-06, global = 3.29091e-07, cumulative = 1.86536e-06
ExecutionTime = 8.59 s  ClockTime = 11 s

fieldMinMax minMax write:
    min(mag(U)) = 0 in cell 36960 at location (0.000485708 0 0.05)
    max(mag(U)) = 71.6454 in cell 37450 at location (0.0423021 0.000754334 0.05)

Time = 0.12

smoothSolver:  Solving for Ux, Initial residual = 0.00962714, Final residual = 0.000134832, No Iterations 1
smoothSolver:  Solving for Uy, Initial residual = 0.0389491, Final residual = 0.000133771, No Iterations 1
GAMG:  Solving for p, Initial residual = 0.00183358, Final residual = 0.000140632, No Iterations 4
time step continuity errors : sum local = 1.50735e-06, global = 2.85308e-07, cumulative = 2.15067e-06
ExecutionTime = 9.04 s  ClockTime = 11 s

fieldMinMax minMax write:
    min(mag(U)) = 0 in cell 36960 at location (0.000485708 0 0.05)
    max(mag(U)) = 71.8391 in cell 37453 at location (0.0455234 0.000754334 0.05)

Time = 0.13

smoothSolver:  Solving for Ux, Initial residual = 0.00852001, Final residual = 0.000122656, No Iterations 1
smoothSolver:  Solving for Uy, Initial residual = 0.0351923, Final residual = 0.000121525, No Iterations 1
GAMG:  Solving for p, Initial residual = 0.00182494, Final residual = 0.000131275, No Iterations 4
time step continuity errors : sum local = 1.37565e-06, global = 2.26303e-07, cumulative = 2.37697e-06
ExecutionTime = 9.49 s  ClockTime = 12 s

fieldMinMax minMax write:
    min(mag(U)) = 0 in cell 36960 at location (0.000485708 0 0.05)
    max(mag(U)) = 72.0181 in cell 37456 at location (0.0487676 0.000754334 0.05)

Time = 0.14

smoothSolver:  Solving for Ux, Initial residual = 0.00761462, Final residual = 0.000111821, No Iterations 1
smoothSolver:  Solving for Uy, Initial residual = 0.0321289, Final residual = 0.000111657, No Iterations 1
GAMG:  Solving for p, Initial residual = 0.00180703, Final residual = 0.000123689, No Iterations 4
time step continuity errors : sum local = 1.27179e-06, global = 1.88503e-07, cumulative = 2.56548e-06
ExecutionTime = 9.95 s  ClockTime = 12 s

fieldMinMax minMax write:
    min(mag(U)) = 0 in cell 36960 at location (0.000485708 0 0.05)
    max(mag(U)) = 72.1824 in cell 37459 at location (0.0520349 0.000754334 0.05)

Time = 0.15

smoothSolver:  Solving for Ux, Initial residual = 0.0068593, Final residual = 0.000102205, No Iterations 1
smoothSolver:  Solving for Uy, Initial residual = 0.0295932, Final residual = 0.000104268, No Iterations 1
GAMG:  Solving for p, Initial residual = 0.00178399, Final residual = 0.000121597, No Iterations 4
time step continuity errors : sum local = 1.23033e-06, global = 1.74181e-07, cumulative = 2.73966e-06
ExecutionTime = 10.39 s  ClockTime = 13 s

fieldMinMax minMax write:
    min(mag(U)) = 0 in cell 36960 at location (0.000485708 0 0.05)
    max(mag(U)) = 72.3319 in cell 37462 at location (0.0553253 0.000754334 0.05)

Time = 0.16

smoothSolver:  Solving for Ux, Initial residual = 0.00621668, Final residual = 9.37482e-05, No Iterations 1
smoothSolver:  Solving for Uy, Initial residual = 0.0274536, Final residual = 9.80962e-05, No Iterations 1
GAMG:  Solving for p, Initial residual = 0.00174677, Final residual = 0.000124067, No Iterations 4
time step continuity errors : sum local = 1.2381e-06, global = 1.54369e-07, cumulative = 2.89403e-06
ExecutionTime = 10.82 s  ClockTime = 13 s

fieldMinMax minMax write:
    min(mag(U)) = 0 in cell 36960 at location (0.000485708 0 0.05)
    max(mag(U)) = 72.4667 in cell 37465 at location (0.0586391 0.000754334 0.05)

Time = 0.17

smoothSolver:  Solving for Ux, Initial residual = 0.00565887, Final residual = 8.62724e-05, No Iterations 1
smoothSolver:  Solving for Uy, Initial residual = 0.0255656, Final residual = 9.23557e-05, No Iterations 1
GAMG:  Solving for p, Initial residual = 0.00171223, Final residual = 0.000122618, No Iterations 4
time step continuity errors : sum local = 1.20855e-06, global = 1.20145e-07, cumulative = 3.01417e-06
ExecutionTime = 11.28 s  ClockTime = 14 s

fieldMinMax minMax write:
    min(mag(U)) = 0 in cell 36960 at location (0.000485708 0 0.05)
    max(mag(U)) = 72.5875 in cell 37467 at location (0.0608614 0.000754334 0.05)

Time = 0.18

smoothSolver:  Solving for Ux, Initial residual = 0.0051722, Final residual = 7.95864e-05, No Iterations 1
smoothSolver:  Solving for Uy, Initial residual = 0.0238479, Final residual = 8.6663e-05, No Iterations 1
GAMG:  Solving for p, Initial residual = 0.00166958, Final residual = 0.000118523, No Iterations 4
time step continuity errors : sum local = 1.1556e-06, global = 8.73802e-08, cumulative = 3.10155e-06
ExecutionTime = 11.73 s  ClockTime = 14 s

fieldMinMax minMax write:
    min(mag(U)) = 0 in cell 36960 at location (0.000485708 0 0.05)
    max(mag(U)) = 72.6945 in cell 37469 at location (0.0630941 0.000754334 0.05)

Time = 0.19

smoothSolver:  Solving for Ux, Initial residual = 0.00474275, Final residual = 7.35664e-05, No Iterations 1
smoothSolver:  Solving for Uy, Initial residual = 0.0222469, Final residual = 8.09087e-05, No Iterations 1
GAMG:  Solving for p, Initial residual = 0.00163643, Final residual = 0.000113191, No Iterations 4
time step continuity errors : sum local = 1.09304e-06, global = 6.41138e-08, cumulative = 3.16567e-06
ExecutionTime = 12.18 s  ClockTime = 15 s

fieldMinMax minMax write:
    min(mag(U)) = 0 in cell 36960 at location (0.000485708 0 0.05)
    max(mag(U)) = 72.7887 in cell 37471 at location (0.0653374 0.000754334 0.05)

Time = 0.2

smoothSolver:  Solving for Ux, Initial residual = 0.00435983, Final residual = 6.81292e-05, No Iterations 1
smoothSolver:  Solving for Uy, Initial residual = 0.0207374, Final residual = 7.51146e-05, No Iterations 1
GAMG:  Solving for p, Initial residual = 0.00159822, Final residual = 0.000157226, No Iterations 3
time step continuity errors : sum local = 1.50495e-06, global = 6.21369e-08, cumulative = 3.2278e-06
ExecutionTime = 12.57 s  ClockTime = 15 s

fieldMinMax minMax write:
    min(mag(U)) = 0 in cell 36960 at location (0.000485708 0 0.05)
    max(mag(U)) = 72.8709 in cell 37473 at location (0.0675913 0.000754334 0.05)

Time = 0.21

smoothSolver:  Solving for Ux, Initial residual = 0.00403738, Final residual = 6.32817e-05, No Iterations 1
smoothSolver:  Solving for Uy, Initial residual = 0.0193676, Final residual = 6.93533e-05, No Iterations 1
GAMG:  Solving for p, Initial residual = 0.00156442, Final residual = 0.000114924, No Iterations 4
time step continuity errors : sum local = 1.09305e-06, global = 4.2911e-08, cumulative = 3.27071e-06
ExecutionTime = 13.03 s  ClockTime = 15 s

fieldMinMax minMax write:
    min(mag(U)) = 0 in cell 36960 at location (0.000485708 0 0.05)
    max(mag(U)) = 72.9419 in cell 37475 at location (0.0698559 0.000754334 0.05)

Time = 0.22

smoothSolver:  Solving for Ux, Initial residual = 0.00370496, Final residual = 5.8721e-05, No Iterations 1
smoothSolver:  Solving for Uy, Initial residual = 0.0179527, Final residual = 6.39794e-05, No Iterations 1
GAMG:  Solving for p, Initial residual = 0.0015108, Final residual = 0.00014004, No Iterations 3
time step continuity errors : sum local = 1.31794e-06, global = 6.28508e-08, cumulative = 3.33356e-06
ExecutionTime = 13.42 s  ClockTime = 16 s

fieldMinMax minMax write:
    min(mag(U)) = 0 in cell 36960 at location (0.000485708 0 0.05)
    max(mag(U)) = 73.0029 in cell 37476 at location (0.0709921 0.000754334 0.05)

Time = 0.23

smoothSolver:  Solving for Ux, Initial residual = 0.00344218, Final residual = 5.47424e-05, No Iterations 1
smoothSolver:  Solving for Uy, Initial residual = 0.0167641, Final residual = 5.84708e-05, No Iterations 1
GAMG:  Solving for p, Initial residual = 0.00145841, Final residual = 9.80464e-05, No Iterations 4
time step continuity errors : sum local = 9.17477e-07, global = 3.17566e-08, cumulative = 3.36532e-06
ExecutionTime = 13.87 s  ClockTime = 16 s

fieldMinMax minMax write:
    min(mag(U)) = 0 in cell 36960 at location (0.000485708 0 0.05)
    max(mag(U)) = 73.0547 in cell 37477 at location (0.0721311 0.000754334 0.05)

Time = 0.24

smoothSolver:  Solving for Ux, Initial residual = 0.00318137, Final residual = 5.09982e-05, No Iterations 1
smoothSolver:  Solving for Uy, Initial residual = 0.0155743, Final residual = 5.36437e-05, No Iterations 1
GAMG:  Solving for p, Initial residual = 0.00140882, Final residual = 0.000131909, No Iterations 3
time step continuity errors : sum local = 1.22443e-06, global = 6.05706e-08, cumulative = 3.42589e-06
ExecutionTime = 14.28 s  ClockTime = 17 s

fieldMinMax minMax write:
    min(mag(U)) = 0 in cell 36960 at location (0.000485708 0 0.05)
    max(mag(U)) = 73.0985 in cell 37478 at location (0.0732728 0.000754334 0.05)

Time = 0.25

smoothSolver:  Solving for Ux, Initial residual = 0.00296999, Final residual = 4.77267e-05, No Iterations 1
smoothSolver:  Solving for Uy, Initial residual = 0.0145755, Final residual = 4.9013e-05, No Iterations 1
GAMG:  Solving for p, Initial residual = 0.00135236, Final residual = 9.27691e-05, No Iterations 4
time step continuity errors : sum local = 8.56932e-07, global = 3.26337e-08, cumulative = 3.45853e-06
ExecutionTime = 14.72 s  ClockTime = 17 s

fieldMinMax minMax write:
    min(mag(U)) = 0 in cell 36960 at location (0.000485708 0 0.05)
    max(mag(U)) = 73.1351 in cell 37479 at location (0.0744171 0.000754334 0.05)

Time = 0.26

smoothSolver:  Solving for Ux, Initial residual = 0.00276053, Final residual = 4.46875e-05, No Iterations 1
smoothSolver:  Solving for Uy, Initial residual = 0.013575, Final residual = 4.50372e-05, No Iterations 1
GAMG:  Solving for p, Initial residual = 0.0013108, Final residual = 0.000131022, No Iterations 3
time step continuity errors : sum local = 1.2019e-06, global = 5.78811e-08, cumulative = 3.51641e-06
ExecutionTime = 15.13 s  ClockTime = 18 s

fieldMinMax minMax write:
    min(mag(U)) = 0 in cell 36960 at location (0.000485708 0 0.05)
    max(mag(U)) = 73.1655 in cell 37479 at location (0.0744171 0.000754334 0.05)

Time = 0.27

smoothSolver:  Solving for Ux, Initial residual = 0.00258397, Final residual = 4.19954e-05, No Iterations 1
smoothSolver:  Solving for Uy, Initial residual = 0.0127259, Final residual = 4.12821e-05, No Iterations 1
GAMG:  Solving for p, Initial residual = 0.00126218, Final residual = 9.33141e-05, No Iterations 4
time step continuity errors : sum local = 8.51948e-07, global = 2.76866e-08, cumulative = 3.54409e-06
ExecutionTime = 15.58 s  ClockTime = 18 s

fieldMinMax minMax write:
    min(mag(U)) = 0 in cell 36960 at location (0.000485708 0 0.05)
    max(mag(U)) = 73.191 in cell 37480 at location (0.0755642 0.000754334 0.05)

Time = 0.28

smoothSolver:  Solving for Ux, Initial residual = 0.00240697, Final residual = 3.94268e-05, No Iterations 1
smoothSolver:  Solving for Uy, Initial residual = 0.01185, Final residual = 3.80333e-05, No Iterations 1
GAMG:  Solving for p, Initial residual = 0.00121252, Final residual = 8.20415e-05, No Iterations 4
time step continuity errors : sum local = 7.43509e-07, global = 1.39854e-08, cumulative = 3.55808e-06
ExecutionTime = 16.05 s  ClockTime = 19 s

fieldMinMax minMax write:
    min(mag(U)) = 0 in cell 36960 at location (0.000485708 0 0.05)
    max(mag(U)) = 73.2116 in cell 37480 at location (0.0755642 0.000754334 0.05)

Time = 0.29

smoothSolver:  Solving for Ux, Initial residual = 0.00225011, Final residual = 3.70962e-05, No Iterations 1
smoothSolver:  Solving for Uy, Initial residual = 0.0110865, Final residual = 3.49084e-05, No Iterations 1
GAMG:  Solving for p, Initial residual = 0.00116453, Final residual = 8.13235e-05, No Iterations 4
time step continuity errors : sum local = 7.32695e-07, global = 4.37427e-09, cumulative = 3.56245e-06
ExecutionTime = 16.5 s  ClockTime = 19 s

fieldMinMax minMax write:
    min(mag(U)) = 0 in cell 36960 at location (0.000485708 0 0.05)
    max(mag(U)) = 73.2288 in cell 37481 at location (0.0767139 0.000754334 0.05)

Time = 0.3

smoothSolver:  Solving for Ux, Initial residual = 0.00211276, Final residual = 3.49557e-05, No Iterations 1
smoothSolver:  Solving for Uy, Initial residual = 0.0103836, Final residual = 3.21883e-05, No Iterations 1
GAMG:  Solving for p, Initial residual = 0.00112498, Final residual = 8.37037e-05, No Iterations 4
time step continuity errors : sum local = 7.50415e-07, global = -1.75161e-09, cumulative = 3.5607e-06
ExecutionTime = 16.94 s  ClockTime = 20 s

fieldMinMax minMax write:
    min(mag(U)) = 0 in cell 36960 at location (0.000485708 0 0.05)
    max(mag(U)) = 73.2427 in cell 37481 at location (0.0767139 0.000754334 0.05)

Time = 0.31

smoothSolver:  Solving for Ux, Initial residual = 0.00199809, Final residual = 3.29881e-05, No Iterations 1
smoothSolver:  Solving for Uy, Initial residual = 0.00972221, Final residual = 2.97467e-05, No Iterations 1
GAMG:  Solving for p, Initial residual = 0.00109165, Final residual = 8.68055e-05, No Iterations 4
time step continuity errors : sum local = 7.74406e-07, global = -8.3791e-09, cumulative = 3.55232e-06
ExecutionTime = 17.38 s  ClockTime = 20 s

fieldMinMax minMax write:
    min(mag(U)) = 0 in cell 36960 at location (0.000485708 0 0.05)
    max(mag(U)) = 73.2538 in cell 37481 at location (0.0767139 0.000754334 0.05)

Time = 0.32

smoothSolver:  Solving for Ux, Initial residual = 0.0018981, Final residual = 3.11782e-05, No Iterations 1
smoothSolver:  Solving for Uy, Initial residual = 0.00910089, Final residual = 2.7585e-05, No Iterations 1
GAMG:  Solving for p, Initial residual = 0.0010591, Final residual = 8.89182e-05, No Iterations 4
time step continuity errors : sum local = 7.89166e-07, global = -1.50567e-08, cumulative = 3.53727e-06
ExecutionTime = 17.84 s  ClockTime = 20 s

fieldMinMax minMax write:
    min(mag(U)) = 0 in cell 36960 at location (0.000485708 0 0.05)
    max(mag(U)) = 73.2628 in cell 37482 at location (0.0778664 0.000754334 0.05)

Time = 0.33

smoothSolver:  Solving for Ux, Initial residual = 0.00181011, Final residual = 2.95212e-05, No Iterations 1
smoothSolver:  Solving for Uy, Initial residual = 0.00852438, Final residual = 2.56976e-05, No Iterations 1
GAMG:  Solving for p, Initial residual = 0.00102545, Final residual = 8.98562e-05, No Iterations 4
time step continuity errors : sum local = 7.93319e-07, global = -2.03392e-08, cumulative = 3.51693e-06
ExecutionTime = 18.29 s  ClockTime = 21 s

fieldMinMax minMax write:
    min(mag(U)) = 0 in cell 36960 at location (0.000485708 0 0.05)
    max(mag(U)) = 73.2702 in cell 37482 at location (0.0778664 0.000754334 0.05)

Time = 0.34

smoothSolver:  Solving for Ux, Initial residual = 0.0017344, Final residual = 2.80124e-05, No Iterations 1
smoothSolver:  Solving for Uy, Initial residual = 0.00799371, Final residual = 2.41042e-05, No Iterations 1
GAMG:  Solving for p, Initial residual = 0.000990979, Final residual = 9.00953e-05, No Iterations 4
time step continuity errors : sum local = 7.91357e-07, global = -2.39939e-08, cumulative = 3.49293e-06
ExecutionTime = 18.74 s  ClockTime = 21 s

fieldMinMax minMax write:
    min(mag(U)) = 0 in cell 36960 at location (0.000485708 0 0.05)
    max(mag(U)) = 73.276 in cell 37482 at location (0.0778664 0.000754334 0.05)

Time = 0.35

smoothSolver:  Solving for Ux, Initial residual = 0.00166927, Final residual = 2.66396e-05, No Iterations 1
smoothSolver:  Solving for Uy, Initial residual = 0.00750869, Final residual = 2.27998e-05, No Iterations 1
GAMG:  Solving for p, Initial residual = 0.000956208, Final residual = 8.96463e-05, No Iterations 4
time step continuity errors : sum local = 7.83508e-07, global = -2.64838e-08, cumulative = 3.46645e-06
ExecutionTime = 19.2 s  ClockTime = 22 s

fieldMinMax minMax write:
    min(mag(U)) = 0 in cell 36960 at location (0.000485708 0 0.05)
    max(mag(U)) = 73.2805 in cell 37482 at location (0.0778664 0.000754334 0.05)

Time = 0.36

smoothSolver:  Solving for Ux, Initial residual = 0.0016114, Final residual = 2.53679e-05, No Iterations 1
smoothSolver:  Solving for Uy, Initial residual = 0.00706917, Final residual = 2.1775e-05, No Iterations 1
GAMG:  Solving for p, Initial residual = 0.000919588, Final residual = 8.88727e-05, No Iterations 4
time step continuity errors : sum local = 7.73006e-07, global = -2.85077e-08, cumulative = 3.43794e-06
ExecutionTime = 19.64 s  ClockTime = 22 s

fieldMinMax minMax write:
    min(mag(U)) = 0 in cell 36960 at location (0.000485708 0 0.05)
    max(mag(U)) = 73.2841 in cell 37482 at location (0.0778664 0.000754334 0.05)

Time = 0.37

smoothSolver:  Solving for Ux, Initial residual = 0.00155874, Final residual = 2.41873e-05, No Iterations 1
smoothSolver:  Solving for Uy, Initial residual = 0.00667358, Final residual = 2.10141e-05, No Iterations 1
GAMG:  Solving for p, Initial residual = 0.000885487, Final residual = 8.78308e-05, No Iterations 4
time step continuity errors : sum local = 7.60346e-07, global = -3.00836e-08, cumulative = 3.40786e-06
ExecutionTime = 20.1 s  ClockTime = 23 s

fieldMinMax minMax write:
    min(mag(U)) = 0 in cell 36960 at location (0.000485708 0 0.05)
    max(mag(U)) = 73.2869 in cell 37482 at location (0.0778664 0.000754334 0.05)

Time = 0.38

smoothSolver:  Solving for Ux, Initial residual = 0.00150958, Final residual = 2.30893e-05, No Iterations 1
smoothSolver:  Solving for Uy, Initial residual = 0.00631711, Final residual = 2.04341e-05, No Iterations 1
GAMG:  Solving for p, Initial residual = 0.000851833, Final residual = 4.08856e-05, No Iterations 5
time step continuity errors : sum local = 3.52322e-07, global = 3.02812e-08, cumulative = 3.43814e-06
ExecutionTime = 20.6 s  ClockTime = 23 s

fieldMinMax minMax write:
    min(mag(U)) = 0 in cell 36960 at location (0.000485708 0 0.05)
    max(mag(U)) = 73.289 in cell 37482 at location (0.0778664 0.000754334 0.05)

Time = 0.39

smoothSolver:  Solving for Ux, Initial residual = 0.00146397, Final residual = 2.20561e-05, No Iterations 1
smoothSolver:  Solving for Uy, Initial residual = 0.00598585, Final residual = 1.99337e-05, No Iterations 1
GAMG:  Solving for p, Initial residual = 0.000815887, Final residual = 7.21626e-05, No Iterations 4
time step continuity errors : sum local = 6.18929e-07, global = -5.61061e-09, cumulative = 3.43253e-06
ExecutionTime = 21.06 s  ClockTime = 24 s

fieldMinMax minMax write:
    min(mag(U)) = 0 in cell 36960 at location (0.000485708 0 0.05)
    max(mag(U)) = 73.2906 in cell 37482 at location (0.0778664 0.000754334 0.05)

Time = 0.4

smoothSolver:  Solving for Ux, Initial residual = 0.00141793, Final residual = 2.10622e-05, No Iterations 1
smoothSolver:  Solving for Uy, Initial residual = 0.00570366, Final residual = 1.9509e-05, No Iterations 1
GAMG:  Solving for p, Initial residual = 0.000789288, Final residual = 7.85492e-05, No Iterations 4
time step continuity errors : sum local = 6.71253e-07, global = -1.87272e-08, cumulative = 3.4138e-06
ExecutionTime = 21.53 s  ClockTime = 24 s

fieldMinMax minMax write:
    min(mag(U)) = 0 in cell 36960 at location (0.000485708 0 0.05)
    max(mag(U)) = 73.2918 in cell 37482 at location (0.0778664 0.000754334 0.05)

Time = 0.41

smoothSolver:  Solving for Ux, Initial residual = 0.00137512, Final residual = 2.01183e-05, No Iterations 1
smoothSolver:  Solving for Uy, Initial residual = 0.00542641, Final residual = 1.90963e-05, No Iterations 1
GAMG:  Solving for p, Initial residual = 0.00075915, Final residual = 7.45427e-05, No Iterations 4
time step continuity errors : sum local = 6.34411e-07, global = -3.12568e-08, cumulative = 3.38254e-06
ExecutionTime = 21.96 s  ClockTime = 25 s

fieldMinMax minMax write:
    min(mag(U)) = 0 in cell 36960 at location (0.000485708 0 0.05)
    max(mag(U)) = 73.2927 in cell 37482 at location (0.0778664 0.000754334 0.05)

Time = 0.42

smoothSolver:  Solving for Ux, Initial residual = 0.00133121, Final residual = 1.92055e-05, No Iterations 1
smoothSolver:  Solving for Uy, Initial residual = 0.00517586, Final residual = 1.86744e-05, No Iterations 1
GAMG:  Solving for p, Initial residual = 0.000736051, Final residual = 6.99009e-05, No Iterations 4
time step continuity errors : sum local = 5.92431e-07, global = -3.74204e-08, cumulative = 3.34512e-06
ExecutionTime = 22.41 s  ClockTime = 25 s

fieldMinMax minMax write:
    min(mag(U)) = 0 in cell 36960 at location (0.000485708 0 0.05)
    max(mag(U)) = 73.2934 in cell 37482 at location (0.0778664 0.000754334 0.05)

Time = 0.43

smoothSolver:  Solving for Ux, Initial residual = 0.00128711, Final residual = 1.83204e-05, No Iterations 1
smoothSolver:  Solving for Uy, Initial residual = 0.00495284, Final residual = 1.82709e-05, No Iterations 1
GAMG:  Solving for p, Initial residual = 0.000716288, Final residual = 6.67624e-05, No Iterations 4
time step continuity errors : sum local = 5.63729e-07, global = -3.99774e-08, cumulative = 3.30515e-06
ExecutionTime = 22.86 s  ClockTime = 26 s

fieldMinMax minMax write:
    min(mag(U)) = 0 in cell 36960 at location (0.000485708 0 0.05)
    max(mag(U)) = 73.2938 in cell 37482 at location (0.0778664 0.000754334 0.05)

Time = 0.44

smoothSolver:  Solving for Ux, Initial residual = 0.00124303, Final residual = 1.74521e-05, No Iterations 1
smoothSolver:  Solving for Uy, Initial residual = 0.00475171, Final residual = 1.78757e-05, No Iterations 1
GAMG:  Solving for p, Initial residual = 0.000697881, Final residual = 6.45393e-05, No Iterations 4
time step continuity errors : sum local = 5.43113e-07, global = -4.04541e-08, cumulative = 3.26469e-06
ExecutionTime = 23.29 s  ClockTime = 26 s

fieldMinMax minMax write:
    min(mag(U)) = 0 in cell 36960 at location (0.000485708 0 0.05)
    max(mag(U)) = 73.2941 in cell 37482 at location (0.0778664 0.000754334 0.05)

Time = 0.45

smoothSolver:  Solving for Ux, Initial residual = 0.00119825, Final residual = 1.65842e-05, No Iterations 1
smoothSolver:  Solving for Uy, Initial residual = 0.00457242, Final residual = 1.74816e-05, No Iterations 1
GAMG:  Solving for p, Initial residual = 0.000678942, Final residual = 6.28116e-05, No Iterations 4
time step continuity errors : sum local = 5.26919e-07, global = -3.95511e-08, cumulative = 3.22514e-06
ExecutionTime = 23.74 s  ClockTime = 27 s

fieldMinMax minMax write:
    min(mag(U)) = 0 in cell 36960 at location (0.000485708 0 0.05)
    max(mag(U)) = 73.2943 in cell 37482 at location (0.0778664 0.000754334 0.05)

Time = 0.46

smoothSolver:  Solving for Ux, Initial residual = 0.00115211, Final residual = 1.57104e-05, No Iterations 1
smoothSolver:  Solving for Uy, Initial residual = 0.00441546, Final residual = 1.7087e-05, No Iterations 1
GAMG:  Solving for p, Initial residual = 0.000660965, Final residual = 6.09794e-05, No Iterations 4
time step continuity errors : sum local = 5.10063e-07, global = -3.75512e-08, cumulative = 3.18759e-06
ExecutionTime = 24.18 s  ClockTime = 27 s

fieldMinMax minMax write:
    min(mag(U)) = 0 in cell 36960 at location (0.000485708 0 0.05)
    max(mag(U)) = 73.2944 in cell 37482 at location (0.0778664 0.000754334 0.05)

Time = 0.47

smoothSolver:  Solving for Ux, Initial residual = 0.00110458, Final residual = 1.48307e-05, No Iterations 1
smoothSolver:  Solving for Uy, Initial residual = 0.00428161, Final residual = 1.66916e-05, No Iterations 1
GAMG:  Solving for p, Initial residual = 0.000642509, Final residual = 5.89045e-05, No Iterations 4
time step continuity errors : sum local = 4.91388e-07, global = -3.47459e-08, cumulative = 3.15284e-06
ExecutionTime = 24.62 s  ClockTime = 27 s

fieldMinMax minMax write:
    min(mag(U)) = 0 in cell 36960 at location (0.000485708 0 0.05)
    max(mag(U)) = 73.2944 in cell 37482 at location (0.0778664 0.000754334 0.05)

Time = 0.48

smoothSolver:  Solving for Ux, Initial residual = 0.00105601, Final residual = 1.39481e-05, No Iterations 1
smoothSolver:  Solving for Uy, Initial residual = 0.00417283, Final residual = 1.6298e-05, No Iterations 1
GAMG:  Solving for p, Initial residual = 0.000623669, Final residual = 5.66354e-05, No Iterations 4
time step continuity errors : sum local = 4.7131e-07, global = -3.14862e-08, cumulative = 3.12136e-06
ExecutionTime = 25.07 s  ClockTime = 28 s

fieldMinMax minMax write:
    min(mag(U)) = 0 in cell 36960 at location (0.000485708 0 0.05)
    max(mag(U)) = 73.2943 in cell 37482 at location (0.0778664 0.000754334 0.05)

Time = 0.49

smoothSolver:  Solving for Ux, Initial residual = 0.00100689, Final residual = 1.30737e-05, No Iterations 1
smoothSolver:  Solving for Uy, Initial residual = 0.00409582, Final residual = 1.59154e-05, No Iterations 1
GAMG:  Solving for p, Initial residual = 0.000604529, Final residual = 5.42055e-05, No Iterations 4
time step continuity errors : sum local = 4.50101e-07, global = -2.81136e-08, cumulative = 3.09324e-06
ExecutionTime = 25.51 s  ClockTime = 28 s

fieldMinMax minMax write:
    min(mag(U)) = 0 in cell 36960 at location (0.000485708 0 0.05)
    max(mag(U)) = 73.2943 in cell 37482 at location (0.0778664 0.000754334 0.05)

Time = 0.5

smoothSolver:  Solving for Ux, Initial residual = 0.000957983, Final residual = 1.22151e-05, No Iterations 1
smoothSolver:  Solving for Uy, Initial residual = 0.00403415, Final residual = 1.55172e-05, No Iterations 1
GAMG:  Solving for p, Initial residual = 0.000585496, Final residual = 5.16327e-05, No Iterations 4
time step continuity errors : sum local = 4.27903e-07, global = -2.49031e-08, cumulative = 3.06834e-06
ExecutionTime = 27.03 s  ClockTime = 31 s

fieldMinMax minMax write:
    min(mag(U)) = 0 in cell 36960 at location (0.000485708 0 0.05)
    max(mag(U)) = 73.2941 in cell 37482 at location (0.0778664 0.000754334 0.05)

yPlus yPlus write:
    writing field yPlus
    patch topWall y+ : min = 0.0181583, max = 0.20632, average = 0.167902
    patch bottomWall y+ : min = 13.43, max = 35.3576, average = 22.2399
writeCellCentres writeCellCentres write:
    writing cell-volumes field C to 0.5
    Writing the x component field of the cell-centres Cx to 0.5
    Writing the y component field of the cell-centres Cy to 0.5
    Writing the z component field of the cell-centres Cz to 0.5
wallShearStress wallShearStress write:
    writing field wallShearStress
    min/max(topWall) = (-1.44065e-09 -1.15844e-06 0), (4.38906e-09 -9.28784e-09 0)
    min/max(bottomWall) = (-3.82781 -0.0113404 0), (-0.552193 0.000232002 0)
Time = 0.51

smoothSolver:  Solving for Ux, Initial residual = 0.000911947, Final residual = 1.13926e-05, No Iterations 1
smoothSolver:  Solving for Uy, Initial residual = 0.00397698, Final residual = 1.50931e-05, No Iterations 1
GAMG:  Solving for p, Initial residual = 0.000566658, Final residual = 4.89189e-05, No Iterations 4
time step continuity errors : sum local = 4.04719e-07, global = -2.20377e-08, cumulative = 3.0463e-06
ExecutionTime = 28.48 s  ClockTime = 33 s

fieldMinMax minMax write:
    min(mag(U)) = 0 in cell 36960 at location (0.000485708 0 0.05)
    max(mag(U)) = 73.294 in cell 37482 at location (0.0778664 0.000754334 0.05)

Time = 0.52

smoothSolver:  Solving for Ux, Initial residual = 0.000869581, Final residual = 1.06412e-05, No Iterations 1
smoothSolver:  Solving for Uy, Initial residual = 0.00391875, Final residual = 1.46506e-05, No Iterations 1
GAMG:  Solving for p, Initial residual = 0.000548353, Final residual = 4.60669e-05, No Iterations 4
time step continuity errors : sum local = 3.80557e-07, global = -1.92005e-08, cumulative = 3.0271e-06
ExecutionTime = 28.92 s  ClockTime = 34 s

fieldMinMax minMax write:
    min(mag(U)) = 0 in cell 36960 at location (0.000485708 0 0.05)
    max(mag(U)) = 73.2939 in cell 37482 at location (0.0778664 0.000754334 0.05)

Time = 0.53

smoothSolver:  Solving for Ux, Initial residual = 0.000829471, Final residual = 9.95045e-06, No Iterations 1
smoothSolver:  Solving for Uy, Initial residual = 0.00385569, Final residual = 1.42026e-05, No Iterations 1
GAMG:  Solving for p, Initial residual = 0.000530288, Final residual = 4.31111e-05, No Iterations 4
time step continuity errors : sum local = 3.55693e-07, global = -1.70444e-08, cumulative = 3.01006e-06
ExecutionTime = 29.35 s  ClockTime = 34 s

fieldMinMax minMax write:
    min(mag(U)) = 0 in cell 36960 at location (0.000485708 0 0.05)
    max(mag(U)) = 73.2937 in cell 37482 at location (0.0778664 0.000754334 0.05)

Time = 0.54

smoothSolver:  Solving for Ux, Initial residual = 0.000791411, Final residual = 9.3214e-06, No Iterations 1
smoothSolver:  Solving for Uy, Initial residual = 0.00378583, Final residual = 1.37391e-05, No Iterations 1
GAMG:  Solving for p, Initial residual = 0.000512709, Final residual = 4.00887e-05, No Iterations 4
time step continuity errors : sum local = 3.30396e-07, global = -1.53777e-08, cumulative = 2.99468e-06
ExecutionTime = 29.78 s  ClockTime = 34 s

fieldMinMax minMax write:
    min(mag(U)) = 0 in cell 36960 at location (0.000485708 0 0.05)
    max(mag(U)) = 73.2935 in cell 37482 at location (0.0778664 0.000754334 0.05)

Time = 0.55

smoothSolver:  Solving for Ux, Initial residual = 0.000755596, Final residual = 8.74243e-06, No Iterations 1
smoothSolver:  Solving for Uy, Initial residual = 0.00370853, Final residual = 1.32533e-05, No Iterations 1
GAMG:  Solving for p, Initial residual = 0.000495884, Final residual = 3.70657e-05, No Iterations 4
time step continuity errors : sum local = 3.05204e-07, global = -1.39427e-08, cumulative = 2.98074e-06
ExecutionTime = 30.18 s  ClockTime = 35 s

fieldMinMax minMax write:
    min(mag(U)) = 0 in cell 36960 at location (0.000485708 0 0.05)
    max(mag(U)) = 73.2933 in cell 37482 at location (0.0778664 0.000754334 0.05)

Time = 0.56

smoothSolver:  Solving for Ux, Initial residual = 0.000720982, Final residual = 8.20613e-06, No Iterations 1
smoothSolver:  Solving for Uy, Initial residual = 0.00362196, Final residual = 1.27468e-05, No Iterations 1
GAMG:  Solving for p, Initial residual = 0.000479581, Final residual = 3.41437e-05, No Iterations 4
time step continuity errors : sum local = 2.80939e-07, global = -1.27977e-08, cumulative = 2.96794e-06
ExecutionTime = 30.6 s  ClockTime = 35 s

fieldMinMax minMax write:
    min(mag(U)) = 0 in cell 36960 at location (0.000485708 0 0.05)
    max(mag(U)) = 73.2932 in cell 37482 at location (0.0778664 0.000754334 0.05)

Time = 0.57

smoothSolver:  Solving for Ux, Initial residual = 0.000688267, Final residual = 7.7201e-06, No Iterations 1
smoothSolver:  Solving for Uy, Initial residual = 0.0035258, Final residual = 1.22235e-05, No Iterations 1
GAMG:  Solving for p, Initial residual = 0.000463774, Final residual = 3.13269e-05, No Iterations 4
time step continuity errors : sum local = 2.57608e-07, global = -1.17995e-08, cumulative = 2.95614e-06
ExecutionTime = 31.02 s  ClockTime = 36 s

fieldMinMax minMax write:
    min(mag(U)) = 0 in cell 36960 at location (0.000485708 0 0.05)
    max(mag(U)) = 73.293 in cell 37482 at location (0.0778664 0.000754334 0.05)

Time = 0.58

smoothSolver:  Solving for Ux, Initial residual = 0.000658103, Final residual = 7.28791e-06, No Iterations 1
smoothSolver:  Solving for Uy, Initial residual = 0.00342055, Final residual = 1.1691e-05, No Iterations 1
GAMG:  Solving for p, Initial residual = 0.000448391, Final residual = 2.87745e-05, No Iterations 4
time step continuity errors : sum local = 2.36506e-07, global = -1.08974e-08, cumulative = 2.94524e-06
ExecutionTime = 31.44 s  ClockTime = 36 s

fieldMinMax minMax write:
    min(mag(U)) = 0 in cell 36960 at location (0.000485708 0 0.05)
    max(mag(U)) = 73.2928 in cell 37482 at location (0.0778664 0.000754334 0.05)

Time = 0.59

smoothSolver:  Solving for Ux, Initial residual = 0.000630694, Final residual = 6.9114e-06, No Iterations 1
smoothSolver:  Solving for Uy, Initial residual = 0.00330694, Final residual = 1.11524e-05, No Iterations 1
GAMG:  Solving for p, Initial residual = 0.000433858, Final residual = 2.67475e-05, No Iterations 4
time step continuity errors : sum local = 2.19759e-07, global = -1.01374e-08, cumulative = 2.93511e-06
ExecutionTime = 31.87 s  ClockTime = 37 s

fieldMinMax minMax write:
    min(mag(U)) = 0 in cell 36960 at location (0.000485708 0 0.05)
    max(mag(U)) = 73.2926 in cell 37482 at location (0.0778664 0.000754334 0.05)

Time = 0.6

smoothSolver:  Solving for Ux, Initial residual = 0.000606461, Final residual = 6.58956e-06, No Iterations 1
smoothSolver:  Solving for Uy, Initial residual = 0.00318589, Final residual = 1.06151e-05, No Iterations 1
GAMG:  Solving for p, Initial residual = 0.000420073, Final residual = 2.55717e-05, No Iterations 4
time step continuity errors : sum local = 2.10029e-07, global = -9.56264e-09, cumulative = 2.92554e-06
ExecutionTime = 32.33 s  ClockTime = 37 s

fieldMinMax minMax write:
    min(mag(U)) = 0 in cell 36960 at location (0.000485708 0 0.05)
    max(mag(U)) = 73.2924 in cell 37482 at location (0.0778664 0.000754334 0.05)

Time = 0.61

smoothSolver:  Solving for Ux, Initial residual = 0.000585382, Final residual = 6.32043e-06, No Iterations 1
smoothSolver:  Solving for Uy, Initial residual = 0.00305895, Final residual = 1.00803e-05, No Iterations 1
GAMG:  Solving for p, Initial residual = 0.000407265, Final residual = 2.52374e-05, No Iterations 4
time step continuity errors : sum local = 2.07224e-07, global = -9.12188e-09, cumulative = 2.91642e-06
ExecutionTime = 32.77 s  ClockTime = 38 s

fieldMinMax minMax write:
    min(mag(U)) = 0 in cell 36960 at location (0.000485708 0 0.05)
    max(mag(U)) = 73.2923 in cell 37482 at location (0.0778664 0.000754334 0.05)

Time = 0.62

smoothSolver:  Solving for Ux, Initial residual = 0.000567532, Final residual = 6.10128e-06, No Iterations 1
smoothSolver:  Solving for Uy, Initial residual = 0.00292846, Final residual = 9.5544e-06, No Iterations 1
GAMG:  Solving for p, Initial residual = 0.000395343, Final residual = 2.54494e-05, No Iterations 4
time step continuity errors : sum local = 2.0891e-07, global = -8.88109e-09, cumulative = 2.90754e-06
ExecutionTime = 33.22 s  ClockTime = 38 s

fieldMinMax minMax write:
    min(mag(U)) = 0 in cell 36960 at location (0.000485708 0 0.05)
    max(mag(U)) = 73.2921 in cell 37482 at location (0.0778664 0.000754334 0.05)

Time = 0.63

smoothSolver:  Solving for Ux, Initial residual = 0.000552726, Final residual = 5.92914e-06, No Iterations 1
smoothSolver:  Solving for Uy, Initial residual = 0.00279591, Final residual = 9.04322e-06, No Iterations 1
GAMG:  Solving for p, Initial residual = 0.000383802, Final residual = 2.60032e-05, No Iterations 4
time step continuity errors : sum local = 2.13398e-07, global = -8.85027e-09, cumulative = 2.89869e-06
ExecutionTime = 33.63 s  ClockTime = 38 s

fieldMinMax minMax write:
    min(mag(U)) = 0 in cell 36960 at location (0.000485708 0 0.05)
    max(mag(U)) = 73.2919 in cell 37482 at location (0.0778664 0.000754334 0.05)

Time = 0.64

smoothSolver:  Solving for Ux, Initial residual = 0.000540722, Final residual = 5.79855e-06, No Iterations 1
smoothSolver:  Solving for Uy, Initial residual = 0.0026604, Final residual = 8.54989e-06, No Iterations 1
GAMG:  Solving for p, Initial residual = 0.00037265, Final residual = 2.69456e-05, No Iterations 4
time step continuity errors : sum local = 2.21075e-07, global = -8.95144e-09, cumulative = 2.88974e-06
ExecutionTime = 34.06 s  ClockTime = 39 s

fieldMinMax minMax write:
    min(mag(U)) = 0 in cell 36960 at location (0.000485708 0 0.05)
    max(mag(U)) = 73.2918 in cell 37482 at location (0.0778664 0.000754334 0.05)

Time = 0.65

smoothSolver:  Solving for Ux, Initial residual = 0.00053102, Final residual = 5.69849e-06, No Iterations 1
smoothSolver:  Solving for Uy, Initial residual = 0.0025254, Final residual = 8.08034e-06, No Iterations 1
GAMG:  Solving for p, Initial residual = 0.000362106, Final residual = 2.80264e-05, No Iterations 4
time step continuity errors : sum local = 2.29881e-07, global = -9.02551e-09, cumulative = 2.88071e-06
ExecutionTime = 34.49 s  ClockTime = 39 s

fieldMinMax minMax write:
    min(mag(U)) = 0 in cell 36960 at location (0.000485708 0 0.05)
    max(mag(U)) = 73.2916 in cell 37482 at location (0.0778664 0.000754334 0.05)

Time = 0.66

smoothSolver:  Solving for Ux, Initial residual = 0.000522263, Final residual = 5.61279e-06, No Iterations 1
smoothSolver:  Solving for Uy, Initial residual = 0.00239284, Final residual = 7.63202e-06, No Iterations 1
GAMG:  Solving for p, Initial residual = 0.000351786, Final residual = 2.8979e-05, No Iterations 4
time step continuity errors : sum local = 2.37627e-07, global = -8.91362e-09, cumulative = 2.8718e-06
ExecutionTime = 34.92 s  ClockTime = 40 s

fieldMinMax minMax write:
    min(mag(U)) = 0 in cell 36960 at location (0.000485708 0 0.05)
    max(mag(U)) = 73.2915 in cell 37482 at location (0.0778664 0.000754334 0.05)

Time = 0.67

smoothSolver:  Solving for Ux, Initial residual = 0.000513094, Final residual = 5.52451e-06, No Iterations 1
smoothSolver:  Solving for Uy, Initial residual = 0.00226394, Final residual = 7.21011e-06, No Iterations 1
GAMG:  Solving for p, Initial residual = 0.000341435, Final residual = 2.97245e-05, No Iterations 4
time step continuity errors : sum local = 2.43666e-07, global = -8.77308e-09, cumulative = 2.86303e-06
ExecutionTime = 35.34 s  ClockTime = 40 s

fieldMinMax minMax write:
    min(mag(U)) = 0 in cell 36960 at location (0.000485708 0 0.05)
    max(mag(U)) = 73.2913 in cell 37482 at location (0.0778664 0.000754334 0.05)

Time = 0.68

smoothSolver:  Solving for Ux, Initial residual = 0.000502784, Final residual = 5.42853e-06, No Iterations 1
smoothSolver:  Solving for Uy, Initial residual = 0.00214037, Final residual = 6.81816e-06, No Iterations 1
GAMG:  Solving for p, Initial residual = 0.000331236, Final residual = 3.02325e-05, No Iterations 4
time step continuity errors : sum local = 2.47745e-07, global = -8.40743e-09, cumulative = 2.85462e-06
ExecutionTime = 35.77 s  ClockTime = 41 s

fieldMinMax minMax write:
    min(mag(U)) = 0 in cell 36960 at location (0.000485708 0 0.05)
    max(mag(U)) = 73.2912 in cell 37482 at location (0.0778664 0.000754334 0.05)

Time = 0.69

smoothSolver:  Solving for Ux, Initial residual = 0.000491233, Final residual = 5.32564e-06, No Iterations 1
smoothSolver:  Solving for Uy, Initial residual = 0.00202339, Final residual = 6.45373e-06, No Iterations 1
GAMG:  Solving for p, Initial residual = 0.000321318, Final residual = 3.05268e-05, No Iterations 4
time step continuity errors : sum local = 2.50065e-07, global = -7.83406e-09, cumulative = 2.84678e-06
ExecutionTime = 36.2 s  ClockTime = 41 s

fieldMinMax minMax write:
    min(mag(U)) = 0 in cell 36960 at location (0.000485708 0 0.05)
    max(mag(U)) = 73.291 in cell 37482 at location (0.0778664 0.000754334 0.05)

Time = 0.7

smoothSolver:  Solving for Ux, Initial residual = 0.000478529, Final residual = 5.2263e-06, No Iterations 1
smoothSolver:  Solving for Uy, Initial residual = 0.00191384, Final residual = 6.11702e-06, No Iterations 1
GAMG:  Solving for p, Initial residual = 0.000311369, Final residual = 3.06262e-05, No Iterations 4
time step continuity errors : sum local = 2.50786e-07, global = -7.06107e-09, cumulative = 2.83972e-06
ExecutionTime = 36.62 s  ClockTime = 42 s

fieldMinMax minMax write:
    min(mag(U)) = 0 in cell 36960 at location (0.000485708 0 0.05)
    max(mag(U)) = 73.2909 in cell 37482 at location (0.0778664 0.000754334 0.05)

Time = 0.71

smoothSolver:  Solving for Ux, Initial residual = 0.000464822, Final residual = 5.1251e-06, No Iterations 1
smoothSolver:  Solving for Uy, Initial residual = 0.00181198, Final residual = 5.80938e-06, No Iterations 1
GAMG:  Solving for p, Initial residual = 0.000301408, Final residual = 2.43e-05, No Iterations 5
time step continuity errors : sum local = 1.98906e-07, global = 1.23869e-08, cumulative = 2.85211e-06
ExecutionTime = 37.1 s  ClockTime = 42 s

fieldMinMax minMax write:
    min(mag(U)) = 0 in cell 36960 at location (0.000485708 0 0.05)
    max(mag(U)) = 73.2907 in cell 37482 at location (0.0778664 0.000754334 0.05)

Time = 0.72

smoothSolver:  Solving for Ux, Initial residual = 0.000450257, Final residual = 5.01776e-06, No Iterations 1
smoothSolver:  Solving for Uy, Initial residual = 0.00171959, Final residual = 5.52368e-06, No Iterations 1
GAMG:  Solving for p, Initial residual = 0.000285938, Final residual = 2.42537e-05, No Iterations 4
time step continuity errors : sum local = 1.98428e-07, global = 4.92757e-10, cumulative = 2.8526e-06
ExecutionTime = 37.53 s  ClockTime = 42 s

fieldMinMax minMax write:
    min(mag(U)) = 0 in cell 36960 at location (0.000485708 0 0.05)
    max(mag(U)) = 73.2906 in cell 37482 at location (0.0778664 0.000754334 0.05)

Time = 0.73

smoothSolver:  Solving for Ux, Initial residual = 0.000434741, Final residual = 4.91001e-06, No Iterations 1
smoothSolver:  Solving for Uy, Initial residual = 0.00163317, Final residual = 5.27967e-06, No Iterations 1
GAMG:  Solving for p, Initial residual = 0.000279694, Final residual = 2.70925e-05, No Iterations 4
time step continuity errors : sum local = 2.2158e-07, global = -1.44061e-09, cumulative = 2.85116e-06
ExecutionTime = 37.94 s  ClockTime = 43 s

fieldMinMax minMax write:
    min(mag(U)) = 0 in cell 36960 at location (0.000485708 0 0.05)
    max(mag(U)) = 73.2905 in cell 37482 at location (0.0778664 0.000754334 0.05)

Time = 0.74

smoothSolver:  Solving for Ux, Initial residual = 0.000419778, Final residual = 4.80081e-06, No Iterations 1
smoothSolver:  Solving for Uy, Initial residual = 0.00155405, Final residual = 5.04858e-06, No Iterations 1
GAMG:  Solving for p, Initial residual = 0.000267743, Final residual = 2.5176e-05, No Iterations 4
time step continuity errors : sum local = 2.05828e-07, global = -3.65594e-10, cumulative = 2.8508e-06
ExecutionTime = 38.36 s  ClockTime = 43 s

fieldMinMax minMax write:
    min(mag(U)) = 0 in cell 36960 at location (0.000485708 0 0.05)
    max(mag(U)) = 73.2904 in cell 37482 at location (0.0778664 0.000754334 0.05)

Time = 0.75

smoothSolver:  Solving for Ux, Initial residual = 0.000404154, Final residual = 4.68739e-06, No Iterations 1
smoothSolver:  Solving for Uy, Initial residual = 0.00148521, Final residual = 4.83943e-06, No Iterations 1
GAMG:  Solving for p, Initial residual = 0.000255508, Final residual = 2.32788e-05, No Iterations 4
time step continuity errors : sum local = 1.90234e-07, global = 1.4198e-09, cumulative = 2.85222e-06
ExecutionTime = 38.78 s  ClockTime = 44 s

fieldMinMax minMax write:
    min(mag(U)) = 0 in cell 36960 at location (0.000485708 0 0.05)
    max(mag(U)) = 73.2903 in cell 37482 at location (0.0778664 0.000754334 0.05)

Time = 0.76

smoothSolver:  Solving for Ux, Initial residual = 0.000387981, Final residual = 4.57134e-06, No Iterations 1
smoothSolver:  Solving for Uy, Initial residual = 0.00142321, Final residual = 4.65476e-06, No Iterations 1
GAMG:  Solving for p, Initial residual = 0.000244854, Final residual = 2.20612e-05, No Iterations 4
time step continuity errors : sum local = 1.80195e-07, global = 2.69488e-09, cumulative = 2.85491e-06
ExecutionTime = 39.2 s  ClockTime = 44 s

fieldMinMax minMax write:
    min(mag(U)) = 0 in cell 36960 at location (0.000485708 0 0.05)
    max(mag(U)) = 73.2902 in cell 37482 at location (0.0778664 0.000754334 0.05)

Time = 0.77

smoothSolver:  Solving for Ux, Initial residual = 0.000371719, Final residual = 4.45456e-06, No Iterations 1
smoothSolver:  Solving for Uy, Initial residual = 0.00136726, Final residual = 4.48807e-06, No Iterations 1
GAMG:  Solving for p, Initial residual = 0.000235059, Final residual = 2.11263e-05, No Iterations 4
time step continuity errors : sum local = 1.72468e-07, global = 3.4401e-09, cumulative = 2.85835e-06
ExecutionTime = 39.6 s  ClockTime = 45 s

fieldMinMax minMax write:
    min(mag(U)) = 0 in cell 36960 at location (0.000485708 0 0.05)
    max(mag(U)) = 73.2901 in cell 37482 at location (0.0778664 0.000754334 0.05)

Time = 0.78

smoothSolver:  Solving for Ux, Initial residual = 0.000355557, Final residual = 4.33776e-06, No Iterations 1
smoothSolver:  Solving for Uy, Initial residual = 0.00131667, Final residual = 4.33231e-06, No Iterations 1
GAMG:  Solving for p, Initial residual = 0.000225528, Final residual = 2.02466e-05, No Iterations 4
time step continuity errors : sum local = 1.65199e-07, global = 3.86451e-09, cumulative = 2.86222e-06
ExecutionTime = 40.01 s  ClockTime = 45 s

fieldMinMax minMax write:
    min(mag(U)) = 0 in cell 36960 at location (0.000485708 0 0.05)
    max(mag(U)) = 73.29 in cell 37482 at location (0.0778664 0.000754334 0.05)

Time = 0.79

smoothSolver:  Solving for Ux, Initial residual = 0.000339545, Final residual = 4.22116e-06, No Iterations 1
smoothSolver:  Solving for Uy, Initial residual = 0.00126855, Final residual = 4.18208e-06, No Iterations 1
GAMG:  Solving for p, Initial residual = 0.000216147, Final residual = 1.93586e-05, No Iterations 4
time step continuity errors : sum local = 1.5787e-07, global = 4.24304e-09, cumulative = 2.86646e-06
ExecutionTime = 40.42 s  ClockTime = 46 s

fieldMinMax minMax write:
    min(mag(U)) = 0 in cell 36960 at location (0.000485708 0 0.05)
    max(mag(U)) = 73.2899 in cell 37482 at location (0.0778664 0.000754334 0.05)

Time = 0.8

smoothSolver:  Solving for Ux, Initial residual = 0.000323756, Final residual = 4.10508e-06, No Iterations 1
smoothSolver:  Solving for Uy, Initial residual = 0.0012213, Final residual = 4.0351e-06, No Iterations 1
GAMG:  Solving for p, Initial residual = 0.000207022, Final residual = 1.84827e-05, No Iterations 4
time step continuity errors : sum local = 1.50648e-07, global = 4.60651e-09, cumulative = 2.87107e-06
ExecutionTime = 40.85 s  ClockTime = 46 s

fieldMinMax minMax write:
    min(mag(U)) = 0 in cell 36960 at location (0.000485708 0 0.05)
    max(mag(U)) = 73.2898 in cell 37482 at location (0.0778664 0.000754334 0.05)

Time = 0.81

smoothSolver:  Solving for Ux, Initial residual = 0.000308248, Final residual = 3.98968e-06, No Iterations 1
smoothSolver:  Solving for Uy, Initial residual = 0.00117455, Final residual = 3.8882e-06, No Iterations 1
GAMG:  Solving for p, Initial residual = 0.000198242, Final residual = 1.74933e-05, No Iterations 4
time step continuity errors : sum local = 1.4251e-07, global = 4.93281e-09, cumulative = 2.876e-06
ExecutionTime = 41.27 s  ClockTime = 46 s

fieldMinMax minMax write:
    min(mag(U)) = 0 in cell 36960 at location (0.000485708 0 0.05)
    max(mag(U)) = 73.2897 in cell 37482 at location (0.0778664 0.000754334 0.05)

Time = 0.82

smoothSolver:  Solving for Ux, Initial residual = 0.000293055, Final residual = 3.87503e-06, No Iterations 1
smoothSolver:  Solving for Uy, Initial residual = 0.00112832, Final residual = 3.74109e-06, No Iterations 1
GAMG:  Solving for p, Initial residual = 0.000189742, Final residual = 1.66362e-05, No Iterations 4
time step continuity errors : sum local = 1.35455e-07, global = 5.30035e-09, cumulative = 2.8813e-06
ExecutionTime = 41.69 s  ClockTime = 47 s

fieldMinMax minMax write:
    min(mag(U)) = 0 in cell 36960 at location (0.000485708 0 0.05)
    max(mag(U)) = 73.2896 in cell 37482 at location (0.0778664 0.000754334 0.05)

Time = 0.83

smoothSolver:  Solving for Ux, Initial residual = 0.00027827, Final residual = 3.76155e-06, No Iterations 1
smoothSolver:  Solving for Uy, Initial residual = 0.00108273, Final residual = 3.59477e-06, No Iterations 1
GAMG:  Solving for p, Initial residual = 0.000181552, Final residual = 1.59425e-05, No Iterations 4
time step continuity errors : sum local = 1.29739e-07, global = 5.74312e-09, cumulative = 2.88704e-06
ExecutionTime = 42.11 s  ClockTime = 47 s

fieldMinMax minMax write:
    min(mag(U)) = 0 in cell 36960 at location (0.000485708 0 0.05)
    max(mag(U)) = 73.2895 in cell 37482 at location (0.0778664 0.000754334 0.05)

Time = 0.84

smoothSolver:  Solving for Ux, Initial residual = 0.000263923, Final residual = 3.64934e-06, No Iterations 1
smoothSolver:  Solving for Uy, Initial residual = 0.00103799, Final residual = 3.45017e-06, No Iterations 1
GAMG:  Solving for p, Initial residual = 0.000173724, Final residual = 1.53259e-05, No Iterations 4
time step continuity errors : sum local = 1.24658e-07, global = 6.25121e-09, cumulative = 2.89329e-06
ExecutionTime = 42.53 s  ClockTime = 48 s

fieldMinMax minMax write:
    min(mag(U)) = 0 in cell 36960 at location (0.000485708 0 0.05)
    max(mag(U)) = 73.2895 in cell 37482 at location (0.0778664 0.000754334 0.05)

Time = 0.85

smoothSolver:  Solving for Ux, Initial residual = 0.000250038, Final residual = 3.53844e-06, No Iterations 1
smoothSolver:  Solving for Uy, Initial residual = 0.000994363, Final residual = 3.30796e-06, No Iterations 1
GAMG:  Solving for p, Initial residual = 0.000166275, Final residual = 1.47638e-05, No Iterations 4
time step continuity errors : sum local = 1.20024e-07, global = 6.80314e-09, cumulative = 2.9001e-06
ExecutionTime = 42.96 s  ClockTime = 48 s

fieldMinMax minMax write:
    min(mag(U)) = 0 in cell 36960 at location (0.000485708 0 0.05)
    max(mag(U)) = 73.2894 in cell 37482 at location (0.0778664 0.000754334 0.05)

Time = 0.86

smoothSolver:  Solving for Ux, Initial residual = 0.000236629, Final residual = 3.42889e-06, No Iterations 1
smoothSolver:  Solving for Uy, Initial residual = 0.000952018, Final residual = 3.16849e-06, No Iterations 1
GAMG:  Solving for p, Initial residual = 0.000159193, Final residual = 1.42334e-05, No Iterations 4
time step continuity errors : sum local = 1.15652e-07, global = 7.3645e-09, cumulative = 2.90746e-06
ExecutionTime = 43.36 s  ClockTime = 49 s

fieldMinMax minMax write:
    min(mag(U)) = 0 in cell 36960 at location (0.000485708 0 0.05)
    max(mag(U)) = 73.2894 in cell 37482 at location (0.0778664 0.000754334 0.05)

Time = 0.87

smoothSolver:  Solving for Ux, Initial residual = 0.000223722, Final residual = 3.32172e-06, No Iterations 1
smoothSolver:  Solving for Uy, Initial residual = 0.00091103, Final residual = 3.03214e-06, No Iterations 1
GAMG:  Solving for p, Initial residual = 0.00015245, Final residual = 1.38736e-05, No Iterations 4
time step continuity errors : sum local = 1.1267e-07, global = 7.91427e-09, cumulative = 2.91538e-06
ExecutionTime = 43.77 s  ClockTime = 49 s

fieldMinMax minMax write:
    min(mag(U)) = 0 in cell 36960 at location (0.000485708 0 0.05)
    max(mag(U)) = 73.2893 in cell 37482 at location (0.0778664 0.000754334 0.05)

Time = 0.88

smoothSolver:  Solving for Ux, Initial residual = 0.000211336, Final residual = 3.2199e-06, No Iterations 1
smoothSolver:  Solving for Uy, Initial residual = 0.000871489, Final residual = 2.89948e-06, No Iterations 1
GAMG:  Solving for p, Initial residual = 0.00014609, Final residual = 1.36798e-05, No Iterations 4
time step continuity errors : sum local = 1.1104e-07, global = 8.44621e-09, cumulative = 2.92382e-06
ExecutionTime = 44.19 s  ClockTime = 49 s

fieldMinMax minMax write:
    min(mag(U)) = 0 in cell 36960 at location (0.000485708 0 0.05)
    max(mag(U)) = 73.2892 in cell 37482 at location (0.0778664 0.000754334 0.05)

Time = 0.89

smoothSolver:  Solving for Ux, Initial residual = 0.000199496, Final residual = 3.12043e-06, No Iterations 1
smoothSolver:  Solving for Uy, Initial residual = 0.000833569, Final residual = 2.77148e-06, No Iterations 1
GAMG:  Solving for p, Initial residual = 0.000140124, Final residual = 1.35176e-05, No Iterations 4
time step continuity errors : sum local = 1.09667e-07, global = 8.89804e-09, cumulative = 2.93272e-06
ExecutionTime = 44.61 s  ClockTime = 50 s

fieldMinMax minMax write:
    min(mag(U)) = 0 in cell 36960 at location (0.000485708 0 0.05)
    max(mag(U)) = 73.2892 in cell 37482 at location (0.0778664 0.000754334 0.05)

Time = 0.9

smoothSolver:  Solving for Ux, Initial residual = 0.000188208, Final residual = 3.02292e-06, No Iterations 1
smoothSolver:  Solving for Uy, Initial residual = 0.000797496, Final residual = 2.64807e-06, No Iterations 1
GAMG:  Solving for p, Initial residual = 0.000134421, Final residual = 6.53721e-06, No Iterations 6
time step continuity errors : sum local = 5.30092e-08, global = 5.57392e-09, cumulative = 2.93829e-06
ExecutionTime = 45.14 s  ClockTime = 50 s

fieldMinMax minMax write:
    min(mag(U)) = 0 in cell 36960 at location (0.000485708 0 0.05)
    max(mag(U)) = 73.2891 in cell 37482 at location (0.0778664 0.000754334 0.05)

Time = 0.91

smoothSolver:  Solving for Ux, Initial residual = 0.00017724, Final residual = 2.9224e-06, No Iterations 1
smoothSolver:  Solving for Uy, Initial residual = 0.000762725, Final residual = 2.52826e-06, No Iterations 1
GAMG:  Solving for p, Initial residual = 0.000126441, Final residual = 1.01516e-05, No Iterations 4
time step continuity errors : sum local = 8.22497e-08, global = 6.6156e-09, cumulative = 2.94491e-06
ExecutionTime = 45.56 s  ClockTime = 51 s

fieldMinMax minMax write:
    min(mag(U)) = 0 in cell 36960 at location (0.000485708 0 0.05)
    max(mag(U)) = 73.2891 in cell 37482 at location (0.0778664 0.000754334 0.05)

Time = 0.92

smoothSolver:  Solving for Ux, Initial residual = 0.00016694, Final residual = 2.83208e-06, No Iterations 1
smoothSolver:  Solving for Uy, Initial residual = 0.000729091, Final residual = 2.4096e-06, No Iterations 1
GAMG:  Solving for p, Initial residual = 0.000123817, Final residual = 6.34063e-06, No Iterations 6
time step continuity errors : sum local = 5.13611e-08, global = 5.39185e-09, cumulative = 2.9503e-06
ExecutionTime = 46.1 s  ClockTime = 51 s

fieldMinMax minMax write:
    min(mag(U)) = 0 in cell 36960 at location (0.000485708 0 0.05)
    max(mag(U)) = 73.2891 in cell 37482 at location (0.0778664 0.000754334 0.05)

Time = 0.93

smoothSolver:  Solving for Ux, Initial residual = 0.000157888, Final residual = 2.74144e-06, No Iterations 1
smoothSolver:  Solving for Uy, Initial residual = 0.000696459, Final residual = 2.29828e-06, No Iterations 1
GAMG:  Solving for p, Initial residual = 0.000115513, Final residual = 1.01948e-05, No Iterations 4
time step continuity errors : sum local = 8.25411e-08, global = 7.85811e-09, cumulative = 2.95816e-06
ExecutionTime = 46.52 s  ClockTime = 52 s

fieldMinMax minMax write:
    min(mag(U)) = 0 in cell 36960 at location (0.000485708 0 0.05)
    max(mag(U)) = 73.289 in cell 37482 at location (0.0778664 0.000754334 0.05)

Time = 0.94

smoothSolver:  Solving for Ux, Initial residual = 0.000148824, Final residual = 2.65395e-06, No Iterations 1
smoothSolver:  Solving for Uy, Initial residual = 0.000665607, Final residual = 2.18572e-06, No Iterations 1
GAMG:  Solving for p, Initial residual = 0.000112829, Final residual = 6.43647e-06, No Iterations 6
time step continuity errors : sum local = 5.20991e-08, global = 5.83874e-09, cumulative = 2.964e-06
ExecutionTime = 47.05 s  ClockTime = 52 s

fieldMinMax minMax write:
    min(mag(U)) = 0 in cell 36960 at location (0.000485708 0 0.05)
    max(mag(U)) = 73.289 in cell 37482 at location (0.0778664 0.000754334 0.05)

Time = 0.95

smoothSolver:  Solving for Ux, Initial residual = 0.000140538, Final residual = 2.56398e-06, No Iterations 1
smoothSolver:  Solving for Uy, Initial residual = 0.000634882, Final residual = 2.08108e-06, No Iterations 1
GAMG:  Solving for p, Initial residual = 0.000105788, Final residual = 9.50682e-06, No Iterations 4
time step continuity errors : sum local = 7.69037e-08, global = 8.09768e-09, cumulative = 2.9721e-06
ExecutionTime = 47.48 s  ClockTime = 53 s

fieldMinMax minMax write:
    min(mag(U)) = 0 in cell 36960 at location (0.000485708 0 0.05)
    max(mag(U)) = 73.2889 in cell 37482 at location (0.0778664 0.000754334 0.05)

Time = 0.96

smoothSolver:  Solving for Ux, Initial residual = 0.000132249, Final residual = 2.48021e-06, No Iterations 1
smoothSolver:  Solving for Uy, Initial residual = 0.000605273, Final residual = 1.97497e-06, No Iterations 1
GAMG:  Solving for p, Initial residual = 0.000102942, Final residual = 6.00479e-06, No Iterations 6
time step continuity errors : sum local = 4.85614e-08, global = 5.66382e-09, cumulative = 2.97776e-06
ExecutionTime = 48.02 s  ClockTime = 53 s

fieldMinMax minMax write:
    min(mag(U)) = 0 in cell 36960 at location (0.000485708 0 0.05)
    max(mag(U)) = 73.2889 in cell 37482 at location (0.0778664 0.000754334 0.05)

Time = 0.97

smoothSolver:  Solving for Ux, Initial residual = 0.000124736, Final residual = 2.39449e-06, No Iterations 1
smoothSolver:  Solving for Uy, Initial residual = 0.00057476, Final residual = 1.8742e-06, No Iterations 1
GAMG:  Solving for p, Initial residual = 9.63331e-05, Final residual = 8.61951e-06, No Iterations 4
time step continuity errors : sum local = 6.96633e-08, global = 7.57157e-09, cumulative = 2.98533e-06
ExecutionTime = 48.48 s  ClockTime = 54 s

fieldMinMax minMax write:
    min(mag(U)) = 0 in cell 36960 at location (0.000485708 0 0.05)
    max(mag(U)) = 73.2889 in cell 37482 at location (0.0778664 0.000754334 0.05)

Time = 0.98

smoothSolver:  Solving for Ux, Initial residual = 0.000117531, Final residual = 2.31518e-06, No Iterations 1
smoothSolver:  Solving for Uy, Initial residual = 0.000546874, Final residual = 1.77432e-06, No Iterations 1
GAMG:  Solving for p, Initial residual = 9.35771e-05, Final residual = 5.29521e-06, No Iterations 6
time step continuity errors : sum local = 4.27857e-08, global = 5.16759e-09, cumulative = 2.9905e-06
ExecutionTime = 49.02 s  ClockTime = 54 s

fieldMinMax minMax write:
    min(mag(U)) = 0 in cell 36960 at location (0.000485708 0 0.05)
    max(mag(U)) = 73.2889 in cell 37482 at location (0.0778664 0.000754334 0.05)

Time = 0.99

smoothSolver:  Solving for Ux, Initial residual = 0.000111102, Final residual = 2.23434e-06, No Iterations 1
smoothSolver:  Solving for Uy, Initial residual = 0.000517591, Final residual = 1.67881e-06, No Iterations 1
GAMG:  Solving for p, Initial residual = 8.7525e-05, Final residual = 7.64194e-06, No Iterations 4
time step continuity errors : sum local = 6.17137e-08, global = 6.93722e-09, cumulative = 2.99744e-06
ExecutionTime = 49.46 s  ClockTime = 55 s

fieldMinMax minMax write:
    min(mag(U)) = 0 in cell 36960 at location (0.000485708 0 0.05)
    max(mag(U)) = 73.2888 in cell 37482 at location (0.0778664 0.000754334 0.05)

Time = 1

smoothSolver:  Solving for Ux, Initial residual = 0.000104981, Final residual = 2.15962e-06, No Iterations 1
smoothSolver:  Solving for Uy, Initial residual = 0.000491499, Final residual = 1.58679e-06, No Iterations 1
GAMG:  Solving for p, Initial residual = 8.48681e-05, Final residual = 4.4448e-06, No Iterations 6
time step continuity errors : sum local = 3.58869e-08, global = 4.49003e-09, cumulative = 3.00193e-06
ExecutionTime = 51.05 s  ClockTime = 57 s

fieldMinMax minMax write:
    min(mag(U)) = 0 in cell 36960 at location (0.000485708 0 0.05)
    max(mag(U)) = 73.2888 in cell 37482 at location (0.0778664 0.000754334 0.05)

yPlus yPlus write:
    writing field yPlus
    patch topWall y+ : min = 0.0185269, max = 0.180641, average = 0.159135
    patch bottomWall y+ : min = 13.078, max = 35.3569, average = 21.5235
writeCellCentres writeCellCentres write:
    writing cell-volumes field C to 1
    Writing the x component field of the cell-centres Cx to 1
    Writing the y component field of the cell-centres Cy to 1
    Writing the z component field of the cell-centres Cz to 1
wallShearStress wallShearStress write:
    writing field wallShearStress
    min/max(topWall) = (-5.89529e-10 -8.88027e-07 0), (3.75108e-09 -9.7577e-09 0)
    min/max(bottomWall) = (-3.82766 -0.0113464 0), (-0.523626 0.000576085 0)
Time = 1.01

smoothSolver:  Solving for Ux, Initial residual = 9.953e-05, Final residual = 2.08346e-06, No Iterations 1
smoothSolver:  Solving for Uy, Initial residual = 0.000463334, Final residual = 1.49739e-06, No Iterations 1
GAMG:  Solving for p, Initial residual = 7.9435e-05, Final residual = 6.55903e-06, No Iterations 4
time step continuity errors : sum local = 5.2931e-08, global = 6.21934e-09, cumulative = 3.00814e-06
ExecutionTime = 52.49 s  ClockTime = 60 s

fieldMinMax minMax write:
    min(mag(U)) = 0 in cell 36960 at location (0.000485708 0 0.05)
    max(mag(U)) = 73.2888 in cell 37482 at location (0.0778664 0.000754334 0.05)

Time = 1.02

smoothSolver:  Solving for Ux, Initial residual = 9.4373e-05, Final residual = 2.01333e-06, No Iterations 1
smoothSolver:  Solving for Uy, Initial residual = 0.000439098, Final residual = 1.41324e-06, No Iterations 1
GAMG:  Solving for p, Initial residual = 7.69725e-05, Final residual = 7.47413e-06, No Iterations 4
time step continuity errors : sum local = 6.0304e-08, global = 7.30681e-09, cumulative = 3.01545e-06
ExecutionTime = 52.97 s  ClockTime = 60 s

fieldMinMax minMax write:
    min(mag(U)) = 0 in cell 36960 at location (0.000485708 0 0.05)
    max(mag(U)) = 73.2888 in cell 37482 at location (0.0778664 0.000754334 0.05)

Time = 1.03

smoothSolver:  Solving for Ux, Initial residual = 8.99426e-05, Final residual = 1.94476e-06, No Iterations 1
smoothSolver:  Solving for Uy, Initial residual = 0.000414623, Final residual = 1.33259e-06, No Iterations 1
GAMG:  Solving for p, Initial residual = 7.35011e-05, Final residual = 7.16731e-06, No Iterations 4
time step continuity errors : sum local = 5.78129e-08, global = 7.42852e-09, cumulative = 3.02288e-06
ExecutionTime = 53.45 s  ClockTime = 61 s

fieldMinMax minMax write:
    min(mag(U)) = 0 in cell 36960 at location (0.000485708 0 0.05)
    max(mag(U)) = 73.2888 in cell 37482 at location (0.0778664 0.000754334 0.05)

Time = 1.04

smoothSolver:  Solving for Ux, Initial residual = 8.57281e-05, Final residual = 1.87664e-06, No Iterations 1
smoothSolver:  Solving for Uy, Initial residual = 0.000389545, Final residual = 1.25215e-06, No Iterations 1
GAMG:  Solving for p, Initial residual = 6.99242e-05, Final residual = 6.52986e-06, No Iterations 4
time step continuity errors : sum local = 5.26541e-08, global = 7.09351e-09, cumulative = 3.02997e-06
ExecutionTime = 53.97 s  ClockTime = 61 s

fieldMinMax minMax write:
    min(mag(U)) = 0 in cell 36960 at location (0.000485708 0 0.05)
    max(mag(U)) = 73.2887 in cell 37482 at location (0.0778664 0.000754334 0.05)

Time = 1.05

smoothSolver:  Solving for Ux, Initial residual = 8.17031e-05, Final residual = 1.81045e-06, No Iterations 1
smoothSolver:  Solving for Uy, Initial residual = 0.000365496, Final residual = 1.17548e-06, No Iterations 1
GAMG:  Solving for p, Initial residual = 6.64452e-05, Final residual = 5.97375e-06, No Iterations 4
time step continuity errors : sum local = 4.81539e-08, global = 6.64964e-09, cumulative = 3.03662e-06
ExecutionTime = 54.45 s  ClockTime = 62 s

fieldMinMax minMax write:
    min(mag(U)) = 0 in cell 36960 at location (0.000485708 0 0.05)
    max(mag(U)) = 73.2887 in cell 37482 at location (0.0778664 0.000754334 0.05)

Time = 1.06

smoothSolver:  Solving for Ux, Initial residual = 7.80182e-05, Final residual = 1.74696e-06, No Iterations 1
smoothSolver:  Solving for Uy, Initial residual = 0.000342792, Final residual = 1.10293e-06, No Iterations 1
GAMG:  Solving for p, Initial residual = 6.32053e-05, Final residual = 5.57337e-06, No Iterations 4
time step continuity errors : sum local = 4.4913e-08, global = 6.21045e-09, cumulative = 3.04283e-06
ExecutionTime = 54.9 s  ClockTime = 62 s

fieldMinMax minMax write:
    min(mag(U)) = 0 in cell 36960 at location (0.000485708 0 0.05)
    max(mag(U)) = 73.2887 in cell 37482 at location (0.0778664 0.000754334 0.05)

Time = 1.07

smoothSolver:  Solving for Ux, Initial residual = 7.47405e-05, Final residual = 1.68603e-06, No Iterations 1
smoothSolver:  Solving for Uy, Initial residual = 0.000321169, Final residual = 1.03409e-06, No Iterations 1
GAMG:  Solving for p, Initial residual = 6.02155e-05, Final residual = 5.27159e-06, No Iterations 4
time step continuity errors : sum local = 4.24701e-08, global = 5.82044e-09, cumulative = 3.04865e-06
ExecutionTime = 55.34 s  ClockTime = 63 s

fieldMinMax minMax write:
    min(mag(U)) = 0 in cell 36960 at location (0.000485708 0 0.05)
    max(mag(U)) = 73.2887 in cell 37482 at location (0.0778664 0.000754334 0.05)

Time = 1.08

smoothSolver:  Solving for Ux, Initial residual = 7.1805e-05, Final residual = 1.62729e-06, No Iterations 1
smoothSolver:  Solving for Uy, Initial residual = 0.000300455, Final residual = 9.69171e-07, No Iterations 1
GAMG:  Solving for p, Initial residual = 5.73793e-05, Final residual = 5.0188e-06, No Iterations 4
time step continuity errors : sum local = 4.04243e-08, global = 5.4995e-09, cumulative = 3.05415e-06
ExecutionTime = 55.77 s  ClockTime = 63 s

fieldMinMax minMax write:
    min(mag(U)) = 0 in cell 36960 at location (0.000485708 0 0.05)
    max(mag(U)) = 73.2887 in cell 37482 at location (0.0778664 0.000754334 0.05)

Time = 1.09

smoothSolver:  Solving for Ux, Initial residual = 6.90866e-05, Final residual = 1.57051e-06, No Iterations 1
smoothSolver:  Solving for Uy, Initial residual = 0.000280573, Final residual = 9.08535e-07, No Iterations 1
GAMG:  Solving for p, Initial residual = 5.46886e-05, Final residual = 4.89079e-06, No Iterations 4
time step continuity errors : sum local = 3.93852e-08, global = 5.25465e-09, cumulative = 3.05941e-06
ExecutionTime = 56.2 s  ClockTime = 64 s

fieldMinMax minMax write:
    min(mag(U)) = 0 in cell 36960 at location (0.000485708 0 0.05)
    max(mag(U)) = 73.2887 in cell 37482 at location (0.0778664 0.000754334 0.05)

Time = 1.1

smoothSolver:  Solving for Ux, Initial residual = 6.65054e-05, Final residual = 1.51554e-06, No Iterations 1
smoothSolver:  Solving for Uy, Initial residual = 0.00026165, Final residual = 8.51688e-07, No Iterations 1
GAMG:  Solving for p, Initial residual = 5.21655e-05, Final residual = 4.86328e-06, No Iterations 4
time step continuity errors : sum local = 3.91565e-08, global = 5.07985e-09, cumulative = 3.06449e-06
ExecutionTime = 56.62 s  ClockTime = 64 s

fieldMinMax minMax write:
    min(mag(U)) = 0 in cell 36960 at location (0.000485708 0 0.05)
    max(mag(U)) = 73.2887 in cell 37482 at location (0.0778664 0.000754334 0.05)

Time = 1.11

smoothSolver:  Solving for Ux, Initial residual = 6.40127e-05, Final residual = 1.46234e-06, No Iterations 1
smoothSolver:  Solving for Uy, Initial residual = 0.000243862, Final residual = 7.98619e-07, No Iterations 1
GAMG:  Solving for p, Initial residual = 4.97789e-05, Final residual = 4.90643e-06, No Iterations 4
time step continuity errors : sum local = 3.94971e-08, global = 4.9467e-09, cumulative = 3.06943e-06
ExecutionTime = 57.06 s  ClockTime = 64 s

fieldMinMax minMax write:
    min(mag(U)) = 0 in cell 36960 at location (0.000485708 0 0.05)
    max(mag(U)) = 73.2887 in cell 37482 at location (0.0778664 0.000754334 0.05)

Time = 1.12

smoothSolver:  Solving for Ux, Initial residual = 6.15938e-05, Final residual = 1.41086e-06, No Iterations 1
smoothSolver:  Solving for Uy, Initial residual = 0.000227136, Final residual = 7.4954e-07, No Iterations 1
GAMG:  Solving for p, Initial residual = 4.75008e-05, Final residual = 2.22201e-06, No Iterations 6
time step continuity errors : sum local = 1.78845e-08, global = 2.26021e-09, cumulative = 3.0717e-06
ExecutionTime = 57.58 s  ClockTime = 65 s

fieldMinMax minMax write:
    min(mag(U)) = 0 in cell 36960 at location (0.000485708 0 0.05)
    max(mag(U)) = 73.2887 in cell 37482 at location (0.0778664 0.000754334 0.05)

Time = 1.13

smoothSolver:  Solving for Ux, Initial residual = 5.90234e-05, Final residual = 1.35905e-06, No Iterations 1
smoothSolver:  Solving for Uy, Initial residual = 0.000208972, Final residual = 6.9789e-07, No Iterations 1
GAMG:  Solving for p, Initial residual = 4.42168e-05, Final residual = 3.96391e-06, No Iterations 4
time step continuity errors : sum local = 3.18964e-08, global = 2.91756e-09, cumulative = 3.07461e-06
ExecutionTime = 58.02 s  ClockTime = 65 s

fieldMinMax minMax write:
    min(mag(U)) = 0 in cell 36960 at location (0.000485708 0 0.05)
    max(mag(U)) = 73.2886 in cell 37482 at location (0.0778664 0.000754334 0.05)

Time = 1.14

smoothSolver:  Solving for Ux, Initial residual = 5.67686e-05, Final residual = 1.31222e-06, No Iterations 1
smoothSolver:  Solving for Uy, Initial residual = 0.000197657, Final residual = 6.64462e-07, No Iterations 1
GAMG:  Solving for p, Initial residual = 4.32655e-05, Final residual = 2.43028e-06, No Iterations 6
time step continuity errors : sum local = 1.95545e-08, global = 2.21499e-09, cumulative = 3.07683e-06
ExecutionTime = 58.58 s  ClockTime = 66 s

fieldMinMax minMax write:
    min(mag(U)) = 0 in cell 36960 at location (0.000485708 0 0.05)
    max(mag(U)) = 73.2886 in cell 37482 at location (0.0778664 0.000754334 0.05)

Time = 1.15

smoothSolver:  Solving for Ux, Initial residual = 5.47399e-05, Final residual = 1.26588e-06, No Iterations 1
smoothSolver:  Solving for Uy, Initial residual = 0.000183169, Final residual = 6.22907e-07, No Iterations 1
GAMG:  Solving for p, Initial residual = 3.99125e-05, Final residual = 3.84646e-06, No Iterations 5
time step continuity errors : sum local = 3.09456e-08, global = 1.4848e-09, cumulative = 3.07831e-06
ExecutionTime = 59.05 s  ClockTime = 67 s

fieldMinMax minMax write:
    min(mag(U)) = 0 in cell 36960 at location (0.000485708 0 0.05)
    max(mag(U)) = 73.2886 in cell 37482 at location (0.0778664 0.000754334 0.05)

Time = 1.16

smoothSolver:  Solving for Ux, Initial residual = 5.26285e-05, Final residual = 1.22069e-06, No Iterations 1
smoothSolver:  Solving for Uy, Initial residual = 0.000171318, Final residual = 5.90569e-07, No Iterations 1
GAMG:  Solving for p, Initial residual = 3.79699e-05, Final residual = 3.72667e-06, No Iterations 4
time step continuity errors : sum local = 2.9979e-08, global = 2.83046e-09, cumulative = 3.08114e-06
ExecutionTime = 59.51 s  ClockTime = 67 s

fieldMinMax minMax write:
    min(mag(U)) = 0 in cell 36960 at location (0.000485708 0 0.05)
    max(mag(U)) = 73.2886 in cell 37482 at location (0.0778664 0.000754334 0.05)

Time = 1.17

smoothSolver:  Solving for Ux, Initial residual = 5.05572e-05, Final residual = 1.17749e-06, No Iterations 1
smoothSolver:  Solving for Uy, Initial residual = 0.000161237, Final residual = 5.6236e-07, No Iterations 1
GAMG:  Solving for p, Initial residual = 3.66452e-05, Final residual = 2.10398e-06, No Iterations 6
time step continuity errors : sum local = 1.69244e-08, global = 1.87811e-09, cumulative = 3.08302e-06
ExecutionTime = 60.05 s  ClockTime = 68 s

fieldMinMax minMax write:
    min(mag(U)) = 0 in cell 36960 at location (0.000485708 0 0.05)
    max(mag(U)) = 73.2886 in cell 37482 at location (0.0778664 0.000754334 0.05)

Time = 1.18

smoothSolver:  Solving for Ux, Initial residual = 4.85621e-05, Final residual = 1.1341e-06, No Iterations 1
smoothSolver:  Solving for Uy, Initial residual = 0.000148547, Final residual = 5.27439e-07, No Iterations 1
GAMG:  Solving for p, Initial residual = 3.35668e-05, Final residual = 3.08281e-06, No Iterations 4
time step continuity errors : sum local = 2.47951e-08, global = 2.38795e-09, cumulative = 3.08541e-06
ExecutionTime = 60.5 s  ClockTime = 68 s

fieldMinMax minMax write:
    min(mag(U)) = 0 in cell 36960 at location (0.000485708 0 0.05)
    max(mag(U)) = 73.2886 in cell 37482 at location (0.0778664 0.000754334 0.05)

Time = 1.19

smoothSolver:  Solving for Ux, Initial residual = 4.65708e-05, Final residual = 1.09324e-06, No Iterations 1
smoothSolver:  Solving for Uy, Initial residual = 0.000141138, Final residual = 5.08075e-07, No Iterations 1
GAMG:  Solving for p, Initial residual = 3.25446e-05, Final residual = 3.1232e-06, No Iterations 5
time step continuity errors : sum local = 2.51186e-08, global = 1.40511e-09, cumulative = 3.08681e-06
ExecutionTime = 60.99 s  ClockTime = 69 s

fieldMinMax minMax write:
[...]
ExecutionTime = 1231.5 s  ClockTime = 1368 s

fieldMinMax minMax write:
    min(mag(U)) = 0 in cell 36960 at location (0.000485708 0 0.05)
    max(mag(U)) = 73.2885 in cell 37482 at location (0.0778664 0.000754334 0.05)

Time = 59.72

smoothSolver:  Solving for Ux, Initial residual = 1.226e-10, Final residual = 5.36798e-13, No Iterations 1
smoothSolver:  Solving for Uy, Initial residual = 1.27385e-10, Final residual = 3.10183e-13, No Iterations 1
GAMG:  Solving for p, Initial residual = 4.05686e-11, Final residual = 4.05686e-11, No Iterations 0
time step continuity errors : sum local = 3.27632e-13, global = 2.86372e-15, cumulative = 3.08734e-06
ExecutionTime = 1231.64 s  ClockTime = 1368 s

fieldMinMax minMax write:
    min(mag(U)) = 0 in cell 36960 at location (0.000485708 0 0.05)
    max(mag(U)) = 73.2885 in cell 37482 at location (0.0778664 0.000754334 0.05)

Time = 59.73

smoothSolver:  Solving for Ux, Initial residual = 6.38648e-11, Final residual = 6.38648e-11, No Iterations 0
smoothSolver:  Solving for Uy, Initial residual = 6.61065e-11, Final residual = 6.61065e-11, No Iterations 0
GAMG:  Solving for p, Initial residual = 6.19097e-11, Final residual = 6.19097e-11, No Iterations 0
time step continuity errors : sum local = 4.99043e-13, global = 4.49703e-16, cumulative = 3.08734e-06
ExecutionTime = 1231.77 s  ClockTime = 1368 s

fieldMinMax minMax write:
    min(mag(U)) = 0 in cell 36960 at location (0.000485708 0 0.05)
    max(mag(U)) = 73.2885 in cell 37482 at location (0.0778664 0.000754334 0.05)

Time = 59.74

smoothSolver:  Solving for Ux, Initial residual = 9.03593e-11, Final residual = 9.03593e-11, No Iterations 0
smoothSolver:  Solving for Uy, Initial residual = 9.23288e-11, Final residual = 9.23288e-11, No Iterations 0
GAMG:  Solving for p, Initial residual = 9.27905e-11, Final residual = 9.27905e-11, No Iterations 0
time step continuity errors : sum local = 7.47458e-13, global = -2.92174e-15, cumulative = 3.08734e-06
ExecutionTime = 1231.91 s  ClockTime = 1368 s

fieldMinMax minMax write:
    min(mag(U)) = 0 in cell 36960 at location (0.000485708 0 0.05)
    max(mag(U)) = 73.2885 in cell 37482 at location (0.0778664 0.000754334 0.05)

Time = 59.75

smoothSolver:  Solving for Ux, Initial residual = 1.30277e-10, Final residual = 5.61193e-13, No Iterations 1
smoothSolver:  Solving for Uy, Initial residual = 1.36923e-10, Final residual = 3.18525e-13, No Iterations 1
GAMG:  Solving for p, Initial residual = 5.8549e-11, Final residual = 5.8549e-11, No Iterations 0
time step continuity errors : sum local = 4.72192e-13, global = 1.95854e-15, cumulative = 3.08734e-06
ExecutionTime = 1232.05 s  ClockTime = 1368 s

fieldMinMax minMax write:
    min(mag(U)) = 0 in cell 36960 at location (0.000485708 0 0.05)
    max(mag(U)) = 73.2885 in cell 37482 at location (0.0778664 0.000754334 0.05)

Time = 59.76

smoothSolver:  Solving for Ux, Initial residual = 7.00891e-11, Final residual = 7.00891e-11, No Iterations 0
smoothSolver:  Solving for Uy, Initial residual = 7.28888e-11, Final residual = 7.28888e-11, No Iterations 0
GAMG:  Solving for p, Initial residual = 7.97905e-11, Final residual = 7.97905e-11, No Iterations 0
time step continuity errors : sum local = 6.42933e-13, global = 5.14267e-15, cumulative = 3.08734e-06
ExecutionTime = 1232.19 s  ClockTime = 1368 s

fieldMinMax minMax write:
    min(mag(U)) = 0 in cell 36960 at location (0.000485708 0 0.05)
    max(mag(U)) = 73.2885 in cell 37482 at location (0.0778664 0.000754334 0.05)

Time = 59.77

smoothSolver:  Solving for Ux, Initial residual = 1.00539e-10, Final residual = 4.89134e-13, No Iterations 1
smoothSolver:  Solving for Uy, Initial residual = 1.0351e-10, Final residual = 2.42144e-13, No Iterations 1
GAMG:  Solving for p, Initial residual = 5.98074e-11, Final residual = 5.98074e-11, No Iterations 0
time step continuity errors : sum local = 4.82416e-13, global = 2.90883e-15, cumulative = 3.08734e-06
ExecutionTime = 1232.33 s  ClockTime = 1368 s

fieldMinMax minMax write:
    min(mag(U)) = 0 in cell 36960 at location (0.000485708 0 0.05)
    max(mag(U)) = 73.2885 in cell 37482 at location (0.0778664 0.000754334 0.05)

Time = 59.78

smoothSolver:  Solving for Ux, Initial residual = 5.34333e-11, Final residual = 5.34333e-11, No Iterations 0
smoothSolver:  Solving for Uy, Initial residual = 5.38387e-11, Final residual = 5.38387e-11, No Iterations 0
GAMG:  Solving for p, Initial residual = 8.97539e-11, Final residual = 8.97539e-11, No Iterations 0
time step continuity errors : sum local = 7.23128e-13, global = 2.35292e-15, cumulative = 3.08734e-06
ExecutionTime = 1232.47 s  ClockTime = 1369 s

fieldMinMax minMax write:
    min(mag(U)) = 0 in cell 36960 at location (0.000485708 0 0.05)
    max(mag(U)) = 73.2885 in cell 37482 at location (0.0778664 0.000754334 0.05)

Time = 59.79

smoothSolver:  Solving for Ux, Initial residual = 7.63278e-11, Final residual = 7.63278e-11, No Iterations 0
smoothSolver:  Solving for Uy, Initial residual = 7.44237e-11, Final residual = 7.44237e-11, No Iterations 0
GAMG:  Solving for p, Initial residual = 1.25541e-10, Final residual = 2.28512e-12, No Iterations 1
time step continuity errors : sum local = 2.74703e-14, global = 2.09481e-15, cumulative = 3.08734e-06
ExecutionTime = 1232.64 s  ClockTime = 1369 s

fieldMinMax minMax write:
    min(mag(U)) = 0 in cell 36960 at location (0.000485708 0 0.05)
    max(mag(U)) = 73.2885 in cell 37482 at location (0.0778664 0.000754334 0.05)

Time = 59.8

smoothSolver:  Solving for Ux, Initial residual = 1.06062e-10, Final residual = 5.0782e-13, No Iterations 1
smoothSolver:  Solving for Uy, Initial residual = 1.1099e-10, Final residual = 2.64101e-13, No Iterations 1
GAMG:  Solving for p, Initial residual = 4.25002e-11, Final residual = 4.25002e-11, No Iterations 0
time step continuity errors : sum local = 3.43241e-13, global = -2.24571e-15, cumulative = 3.08734e-06
ExecutionTime = 1232.79 s  ClockTime = 1369 s

fieldMinMax minMax write:
    min(mag(U)) = 0 in cell 36960 at location (0.000485708 0 0.05)
    max(mag(U)) = 73.2885 in cell 37482 at location (0.0778664 0.000754334 0.05)

Time = 59.81

smoothSolver:  Solving for Ux, Initial residual = 5.54825e-11, Final residual = 5.54825e-11, No Iterations 0
smoothSolver:  Solving for Uy, Initial residual = 5.83808e-11, Final residual = 5.83808e-11, No Iterations 0
GAMG:  Solving for p, Initial residual = 6.95093e-11, Final residual = 6.95093e-11, No Iterations 0
time step continuity errors : sum local = 5.60209e-13, global = -3.27656e-15, cumulative = 3.08734e-06
ExecutionTime = 1232.93 s  ClockTime = 1369 s

fieldMinMax minMax write:
    min(mag(U)) = 0 in cell 36960 at location (0.000485708 0 0.05)
    max(mag(U)) = 73.2885 in cell 37482 at location (0.0778664 0.000754334 0.05)

Time = 59.82

smoothSolver:  Solving for Ux, Initial residual = 8.01771e-11, Final residual = 8.01771e-11, No Iterations 0
smoothSolver:  Solving for Uy, Initial residual = 8.28357e-11, Final residual = 8.28357e-11, No Iterations 0
GAMG:  Solving for p, Initial residual = 1.06598e-10, Final residual = 3.19223e-12, No Iterations 1
time step continuity errors : sum local = 3.5027e-14, global = 2.13777e-15, cumulative = 3.08734e-06
ExecutionTime = 1233.1 s  ClockTime = 1369 s

fieldMinMax minMax write:
    min(mag(U)) = 0 in cell 36960 at location (0.000485708 0 0.05)
    max(mag(U)) = 73.2885 in cell 37482 at location (0.0778664 0.000754334 0.05)

Time = 59.83

smoothSolver:  Solving for Ux, Initial residual = 1.12854e-10, Final residual = 5.16845e-13, No Iterations 1
smoothSolver:  Solving for Uy, Initial residual = 1.2886e-10, Final residual = 3.0393e-13, No Iterations 1
GAMG:  Solving for p, Initial residual = 3.91746e-11, Final residual = 3.91746e-11, No Iterations 0
time step continuity errors : sum local = 3.16485e-13, global = 8.79804e-16, cumulative = 3.08734e-06
ExecutionTime = 1233.26 s  ClockTime = 1369 s

fieldMinMax minMax write:
    min(mag(U)) = 0 in cell 36960 at location (0.000485708 0 0.05)
    max(mag(U)) = 73.2885 in cell 37482 at location (0.0778664 0.000754334 0.05)

Time = 59.84

smoothSolver:  Solving for Ux, Initial residual = 5.91281e-11, Final residual = 5.91281e-11, No Iterations 0
smoothSolver:  Solving for Uy, Initial residual = 6.77749e-11, Final residual = 6.77749e-11, No Iterations 0
GAMG:  Solving for p, Initial residual = 5.81775e-11, Final residual = 5.81775e-11, No Iterations 0
time step continuity errors : sum local = 4.69161e-13, global = -3.27414e-17, cumulative = 3.08734e-06
ExecutionTime = 1233.41 s  ClockTime = 1370 s

fieldMinMax minMax write:
    min(mag(U)) = 0 in cell 36960 at location (0.000485708 0 0.05)
    max(mag(U)) = 73.2885 in cell 37482 at location (0.0778664 0.000754334 0.05)

Time = 59.85

smoothSolver:  Solving for Ux, Initial residual = 8.42032e-11, Final residual = 8.42032e-11, No Iterations 0
smoothSolver:  Solving for Uy, Initial residual = 9.49303e-11, Final residual = 9.49303e-11, No Iterations 0
GAMG:  Solving for p, Initial residual = 8.43368e-11, Final residual = 8.43368e-11, No Iterations 0
time step continuity errors : sum local = 6.79494e-13, global = -5.09513e-15, cumulative = 3.08734e-06
ExecutionTime = 1233.55 s  ClockTime = 1370 s

fieldMinMax minMax write:
    min(mag(U)) = 0 in cell 36960 at location (0.000485708 0 0.05)
    max(mag(U)) = 73.2885 in cell 37482 at location (0.0778664 0.000754334 0.05)

Time = 59.86

smoothSolver:  Solving for Ux, Initial residual = 1.22675e-10, Final residual = 5.3498e-13, No Iterations 1
smoothSolver:  Solving for Uy, Initial residual = 1.35264e-10, Final residual = 3.41634e-13, No Iterations 1
GAMG:  Solving for p, Initial residual = 5.9312e-11, Final residual = 5.9312e-11, No Iterations 0
time step continuity errors : sum local = 4.78462e-13, global = -3.63747e-15, cumulative = 3.08734e-06
ExecutionTime = 1233.7 s  ClockTime = 1370 s

fieldMinMax minMax write:
    min(mag(U)) = 0 in cell 36960 at location (0.000485708 0 0.05)
    max(mag(U)) = 73.2885 in cell 37482 at location (0.0778664 0.000754334 0.05)

Time = 59.87

smoothSolver:  Solving for Ux, Initial residual = 6.55843e-11, Final residual = 6.55843e-11, No Iterations 0
smoothSolver:  Solving for Uy, Initial residual = 7.16378e-11, Final residual = 7.16378e-11, No Iterations 0
GAMG:  Solving for p, Initial residual = 7.40608e-11, Final residual = 7.40608e-11, No Iterations 0
time step continuity errors : sum local = 5.96796e-13, global = -4.78774e-15, cumulative = 3.08734e-06
ExecutionTime = 1233.85 s  ClockTime = 1370 s

fieldMinMax minMax write:
    min(mag(U)) = 0 in cell 36960 at location (0.000485708 0 0.05)
    max(mag(U)) = 73.2885 in cell 37482 at location (0.0778664 0.000754334 0.05)

Time = 59.88

smoothSolver:  Solving for Ux, Initial residual = 9.34316e-11, Final residual = 9.34316e-11, No Iterations 0
smoothSolver:  Solving for Uy, Initial residual = 1.0454e-10, Final residual = 2.42151e-13, No Iterations 1
GAMG:  Solving for p, Initial residual = 5.30309e-10, Final residual = 3.85607e-12, No Iterations 1
time step continuity errors : sum local = 4.01421e-14, global = 6.8402e-15, cumulative = 3.08734e-06
ExecutionTime = 1234.02 s  ClockTime = 1370 s

fieldMinMax minMax write:
    min(mag(U)) = 0 in cell 36960 at location (0.000485708 0 0.05)
    max(mag(U)) = 73.2885 in cell 37482 at location (0.0778664 0.000754334 0.05)

Time = 59.89

smoothSolver:  Solving for Ux, Initial residual = 1.29665e-10, Final residual = 5.73097e-13, No Iterations 1
smoothSolver:  Solving for Uy, Initial residual = 1.17569e-10, Final residual = 3.28213e-13, No Iterations 1
GAMG:  Solving for p, Initial residual = 9.03299e-11, Final residual = 9.03299e-11, No Iterations 0
time step continuity errors : sum local = 7.2807e-13, global = 3.95982e-15, cumulative = 3.08734e-06
ExecutionTime = 1234.18 s  ClockTime = 1370 s

fieldMinMax minMax write:
    min(mag(U)) = 0 in cell 36960 at location (0.000485708 0 0.05)
    max(mag(U)) = 73.2885 in cell 37482 at location (0.0778664 0.000754334 0.05)

Time = 59.9

smoothSolver:  Solving for Ux, Initial residual = 6.7509e-11, Final residual = 6.7509e-11, No Iterations 0
smoothSolver:  Solving for Uy, Initial residual = 6.15273e-11, Final residual = 6.15273e-11, No Iterations 0
GAMG:  Solving for p, Initial residual = 1.60929e-10, Final residual = 3.32946e-12, No Iterations 1
time step continuity errors : sum local = 3.62157e-14, global = 3.4953e-15, cumulative = 3.08734e-06
ExecutionTime = 1234.34 s  ClockTime = 1371 s

fieldMinMax minMax write:
    min(mag(U)) = 0 in cell 36960 at location (0.000485708 0 0.05)
    max(mag(U)) = 73.2885 in cell 37482 at location (0.0778664 0.000754334 0.05)

Time = 59.91

smoothSolver:  Solving for Ux, Initial residual = 9.68945e-11, Final residual = 9.68945e-11, No Iterations 0
smoothSolver:  Solving for Uy, Initial residual = 1.04897e-10, Final residual = 2.64858e-13, No Iterations 1
GAMG:  Solving for p, Initial residual = 5.56406e-10, Final residual = 2.21422e-12, No Iterations 1
time step continuity errors : sum local = 2.73094e-14, global = 1.83156e-15, cumulative = 3.08734e-06
ExecutionTime = 1234.52 s  ClockTime = 1371 s

fieldMinMax minMax write:
    min(mag(U)) = 0 in cell 36960 at location (0.000485708 0 0.05)
    max(mag(U)) = 73.2885 in cell 37482 at location (0.0778664 0.000754334 0.05)

Time = 59.92

smoothSolver:  Solving for Ux, Initial residual = 1.37275e-10, Final residual = 5.65635e-13, No Iterations 1
smoothSolver:  Solving for Uy, Initial residual = 1.14883e-10, Final residual = 2.69271e-13, No Iterations 1
GAMG:  Solving for p, Initial residual = 9.18911e-11, Final residual = 9.18911e-11, No Iterations 0
time step continuity errors : sum local = 7.40755e-13, global = -2.73067e-15, cumulative = 3.08734e-06
ExecutionTime = 1234.67 s  ClockTime = 1371 s

fieldMinMax minMax write:
    min(mag(U)) = 0 in cell 36960 at location (0.000485708 0 0.05)
    max(mag(U)) = 73.2885 in cell 37482 at location (0.0778664 0.000754334 0.05)

Time = 59.93

smoothSolver:  Solving for Ux, Initial residual = 7.20243e-11, Final residual = 7.20243e-11, No Iterations 0
smoothSolver:  Solving for Uy, Initial residual = 5.99788e-11, Final residual = 5.99788e-11, No Iterations 0
GAMG:  Solving for p, Initial residual = 1.56764e-10, Final residual = 3.38963e-12, No Iterations 1
time step continuity errors : sum local = 3.68883e-14, global = 1.79232e-15, cumulative = 3.08734e-06
ExecutionTime = 1234.84 s  ClockTime = 1371 s

fieldMinMax minMax write:
    min(mag(U)) = 0 in cell 36960 at location (0.000485708 0 0.05)
    max(mag(U)) = 73.2885 in cell 37482 at location (0.0778664 0.000754334 0.05)

Time = 59.94

smoothSolver:  Solving for Ux, Initial residual = 1.00851e-10, Final residual = 4.8972e-13, No Iterations 1
smoothSolver:  Solving for Uy, Initial residual = 9.27612e-11, Final residual = 9.27612e-11, No Iterations 0
GAMG:  Solving for p, Initial residual = 4.89306e-10, Final residual = 2.61993e-12, No Iterations 1
time step continuity errors : sum local = 3.07408e-14, global = 7.45726e-16, cumulative = 3.08734e-06
ExecutionTime = 1235.01 s  ClockTime = 1371 s

fieldMinMax minMax write:
    min(mag(U)) = 0 in cell 36960 at location (0.000485708 0 0.05)
    max(mag(U)) = 73.2885 in cell 37482 at location (0.0778664 0.000754334 0.05)

Time = 59.95

smoothSolver:  Solving for Ux, Initial residual = 5.40921e-11, Final residual = 5.40921e-11, No Iterations 0
smoothSolver:  Solving for Uy, Initial residual = 8.67821e-11, Final residual = 8.67821e-11, No Iterations 0
GAMG:  Solving for p, Initial residual = 2.12589e-10, Final residual = 1.86759e-12, No Iterations 1
time step continuity errors : sum local = 2.49442e-14, global = 1.4405e-15, cumulative = 3.08734e-06
ExecutionTime = 1235.19 s  ClockTime = 1371 s

fieldMinMax minMax write:
    min(mag(U)) = 0 in cell 36960 at location (0.000485708 0 0.05)
    max(mag(U)) = 73.2885 in cell 37482 at location (0.0778664 0.000754334 0.05)

Time = 59.96

smoothSolver:  Solving for Ux, Initial residual = 7.8148e-11, Final residual = 7.8148e-11, No Iterations 0
smoothSolver:  Solving for Uy, Initial residual = 1.0378e-10, Final residual = 2.35432e-13, No Iterations 1
GAMG:  Solving for p, Initial residual = 3.81031e-10, Final residual = 2.42373e-12, No Iterations 1
time step continuity errors : sum local = 2.94325e-14, global = 1.47255e-15, cumulative = 3.08734e-06
ExecutionTime = 1235.38 s  ClockTime = 1372 s

fieldMinMax minMax write:
    min(mag(U)) = 0 in cell 36960 at location (0.000485708 0 0.05)
    max(mag(U)) = 73.2885 in cell 37482 at location (0.0778664 0.000754334 0.05)

Time = 59.97

smoothSolver:  Solving for Ux, Initial residual = 1.11206e-10, Final residual = 4.9662e-13, No Iterations 1
smoothSolver:  Solving for Uy, Initial residual = 9.16769e-11, Final residual = 9.16769e-11, No Iterations 0
GAMG:  Solving for p, Initial residual = 4.95615e-10, Final residual = 2.58483e-12, No Iterations 1
time step continuity errors : sum local = 3.06997e-14, global = -5.3275e-16, cumulative = 3.08734e-06
ExecutionTime = 1235.56 s  ClockTime = 1372 s

fieldMinMax minMax write:
    min(mag(U)) = 0 in cell 36960 at location (0.000485708 0 0.05)
    max(mag(U)) = 73.2885 in cell 37482 at location (0.0778664 0.000754334 0.05)

Time = 59.98

smoothSolver:  Solving for Ux, Initial residual = 5.9281e-11, Final residual = 5.9281e-11, No Iterations 0
smoothSolver:  Solving for Uy, Initial residual = 7.66429e-11, Final residual = 7.66429e-11, No Iterations 0
GAMG:  Solving for p, Initial residual = 1.64335e-10, Final residual = 1.62296e-12, No Iterations 1
time step continuity errors : sum local = 2.31401e-14, global = 3.21324e-17, cumulative = 3.08734e-06
ExecutionTime = 1235.75 s  ClockTime = 1372 s

fieldMinMax minMax write:
    min(mag(U)) = 0 in cell 36960 at location (0.000485708 0 0.05)
    max(mag(U)) = 73.2885 in cell 37482 at location (0.0778664 0.000754334 0.05)

Time = 59.99

smoothSolver:  Solving for Ux, Initial residual = 8.35442e-11, Final residual = 8.35442e-11, No Iterations 0
smoothSolver:  Solving for Uy, Initial residual = 9.97612e-11, Final residual = 9.97612e-11, No Iterations 0
GAMG:  Solving for p, Initial residual = 8.05568e-11, Final residual = 8.05568e-11, No Iterations 0
time step continuity errors : sum local = 6.49429e-13, global = 1.67084e-15, cumulative = 3.08734e-06
ExecutionTime = 1235.88 s  ClockTime = 1372 s

fieldMinMax minMax write:
    min(mag(U)) = 0 in cell 36960 at location (0.000485708 0 0.05)
    max(mag(U)) = 73.2885 in cell 37482 at location (0.0778664 0.000754334 0.05)

Time = 60

smoothSolver:  Solving for Ux, Initial residual = 1.18962e-10, Final residual = 5.27062e-13, No Iterations 1
smoothSolver:  Solving for Uy, Initial residual = 1.41011e-10, Final residual = 3.07548e-13, No Iterations 1
GAMG:  Solving for p, Initial residual = 8.97877e-11, Final residual = 8.97877e-11, No Iterations 0
time step continuity errors : sum local = 7.23835e-13, global = -2.43298e-15, cumulative = 3.08734e-06
ExecutionTime = 1236.45 s  ClockTime = 1373 s

fieldMinMax minMax write:
    min(mag(U)) = 0 in cell 36960 at location (0.000485708 0 0.05)
    max(mag(U)) = 73.2885 in cell 37482 at location (0.0778664 0.000754334 0.05)

yPlus yPlus write:
    writing field yPlus
    patch topWall y+ : min = 0.0184832, max = 0.18296, average = 0.159654
    patch bottomWall y+ : min = 12.9961, max = 35.3569, average = 21.4435
writeCellCentres writeCellCentres write:
    writing cell-volumes field C to 60
    Writing the x component field of the cell-centres Cx to 60
    Writing the y component field of the cell-centres Cy to 60
    Writing the z component field of the cell-centres Cz to 60
wallShearStress wallShearStress write:
    writing field wallShearStress
    min/max(topWall) = (-6.46824e-10 -9.1097e-07 0), (3.73859e-09 -9.71637e-09 0)
    min/max(bottomWall) = (-3.82765 -0.0113468 0), (-0.517088 0.000778214 0)
End

