/*---------------------------------------------------------------------------*\
| =========                 |                                                 |
| \\      /  F ield         | OpenFOAM: The Open Source CFD Toolbox           |
|  \\    /   O peration     | Version:  v2012                                 |
|   \\  /    A nd           | Website:  www.openfoam.com                      |
|    \\/     M anipulation  |                                                 |
\*---------------------------------------------------------------------------*/
Build  : _7bdb509494-20201222 OPENFOAM=2012
Arch   : "LSB;label=32;scalar=64"
Exec   : simpleFoam
Date   : Mar 22 2025
Time   : 23:56:24
Host   : Taupok
PID    : 3190
I/O    : uncollated
Case   : /mnt/c/Users/lowjo/OneDrive/Desktop/ASTAR/DASH/testLaminarFlatPlate
nProcs : 1
trapFpe: Floating point exception trapping enabled (FOAM_SIGFPE).
fileModificationChecking : Monitoring run-time modified files using timeStampMaster (fileModificationSkew 5, maxFileModificationPolls 20)
allowSystemOperations : Allowing user-supplied system call operations

// * * * * * * * * * * * * * * * * * * * * * * * * * * * * * * * * * * * * * //
Create time

Create mesh for time = 0


SIMPLE: no convergence criteria found. Calculations will run for 60 steps.

Reading field p

Reading field U

Reading/calculating face flux field phi

Selecting incompressible transport model Newtonian
Selecting turbulence model type laminar
Selecting laminar stress model Stokes
No MRF models present

No finite volume options present

Starting time loop

wallShearStress wallShearStress:
    processing all wall patches

Time = 0.01

smoothSolver:  Solving for Ux, Initial residual = 1, Final residual = 0.0540813, No Iterations 2
smoothSolver:  Solving for Uy, Initial residual = 1, Final residual = 0.0393048, No Iterations 2
GAMG:  Solving for p, Initial residual = 1, Final residual = 0.0847594, No Iterations 17
time step continuity errors : sum local = 8.00868e-07, global = 3.10507e-07, cumulative = 3.10507e-07
ExecutionTime = 1.91 s  ClockTime = 3 s

fieldMinMax minMax write:
    min(mag(U)) = 0 in cell 36960 at location (0.000485708 0 0.05)
    max(mag(U)) = 69.5169 in cell 41452 at location (0.00243313 0.00021349 0.05)

Time = 0.02

smoothSolver:  Solving for Ux, Initial residual = 0.0289498, Final residual = 0.00248048, No Iterations 3
smoothSolver:  Solving for Uy, Initial residual = 0.220209, Final residual = 0.00403688, No Iterations 1
GAMG:  Solving for p, Initial residual = 0.00204605, Final residual = 0.000127167, No Iterations 8
time step continuity errors : sum local = 1.5833e-06, global = 2.63753e-07, cumulative = 5.7426e-07
ExecutionTime = 2.4 s  ClockTime = 3 s

fieldMinMax minMax write:
    min(mag(U)) = 0 in cell 36960 at location (0.000485708 0 0.05)
    max(mag(U)) = 71.3225 in cell 95 at location (-0.000598615 9.3238e-06 0.05)

Time = 0.03

smoothSolver:  Solving for Ux, Initial residual = 0.0102033, Final residual = 0.000866659, No Iterations 4
smoothSolver:  Solving for Uy, Initial residual = 0.103637, Final residual = 0.00249609, No Iterations 1
GAMG:  Solving for p, Initial residual = 0.00279156, Final residual = 0.0001954, No Iterations 6
time step continuity errors : sum local = 1.65944e-06, global = 6.28381e-07, cumulative = 1.20264e-06
ExecutionTime = 2.76 s  ClockTime = 4 s

fieldMinMax minMax write:
    min(mag(U)) = 0 in cell 36960 at location (0.000485708 0 0.05)
    max(mag(U)) = 72.9573 in cell 95 at location (-0.000598615 9.3238e-06 0.05)

Time = 0.04

smoothSolver:  Solving for Ux, Initial residual = 0.00578706, Final residual = 0.000379457, No Iterations 5
smoothSolver:  Solving for Uy, Initial residual = 0.0657258, Final residual = 0.00168464, No Iterations 1
GAMG:  Solving for p, Initial residual = 0.00289411, Final residual = 0.000275102, No Iterations 5
time step continuity errors : sum local = 1.88681e-06, global = -4.45379e-07, cumulative = 7.57261e-07
ExecutionTime = 3.09 s  ClockTime = 4 s

fieldMinMax minMax write:
    min(mag(U)) = 0 in cell 36960 at location (0.000485708 0 0.05)
    max(mag(U)) = 74.0338 in cell 95 at location (-0.000598615 9.3238e-06 0.05)

Time = 0.05

smoothSolver:  Solving for Ux, Initial residual = 0.0039695, Final residual = 0.000292991, No Iterations 5
smoothSolver:  Solving for Uy, Initial residual = 0.0480033, Final residual = 0.0011925, No Iterations 1
GAMG:  Solving for p, Initial residual = 0.00296855, Final residual = 0.000173888, No Iterations 5
time step continuity errors : sum local = 1.0256e-06, global = 2.09959e-07, cumulative = 9.6722e-07
ExecutionTime = 3.39 s  ClockTime = 4 s

fieldMinMax minMax write:
    min(mag(U)) = 0 in cell 36960 at location (0.000485708 0 0.05)
    max(mag(U)) = 74.6331 in cell 95 at location (-0.000598615 9.3238e-06 0.05)

Time = 0.06

smoothSolver:  Solving for Ux, Initial residual = 0.00300323, Final residual = 0.000238336, No Iterations 5
smoothSolver:  Solving for Uy, Initial residual = 0.0376292, Final residual = 0.000867286, No Iterations 1
GAMG:  Solving for p, Initial residual = 0.00295625, Final residual = 0.00019851, No Iterations 4
time step continuity errors : sum local = 1.04055e-06, global = 2.86888e-07, cumulative = 1.25411e-06
ExecutionTime = 3.7 s  ClockTime = 5 s

fieldMinMax minMax write:
    min(mag(U)) = 0 in cell 36960 at location (0.000485708 0 0.05)
    max(mag(U)) = 74.9051 in cell 95 at location (-0.000598615 9.3238e-06 0.05)

Time = 0.07

smoothSolver:  Solving for Ux, Initial residual = 0.00242154, Final residual = 0.000200591, No Iterations 5
smoothSolver:  Solving for Uy, Initial residual = 0.0317509, Final residual = 0.000658099, No Iterations 1
GAMG:  Solving for p, Initial residual = 0.00293444, Final residual = 0.000251609, No Iterations 3
time step continuity errors : sum local = 1.23928e-06, global = 6.2167e-08, cumulative = 1.31628e-06
ExecutionTime = 3.98 s  ClockTime = 5 s

fieldMinMax minMax write:
    min(mag(U)) = 0 in cell 36960 at location (0.000485708 0 0.05)
    max(mag(U)) = 74.9864 in cell 95 at location (-0.000598615 9.3238e-06 0.05)

Time = 0.08

smoothSolver:  Solving for Ux, Initial residual = 0.00203359, Final residual = 0.000172954, No Iterations 5
smoothSolver:  Solving for Uy, Initial residual = 0.0279703, Final residual = 0.000536495, No Iterations 1
GAMG:  Solving for p, Initial residual = 0.00283814, Final residual = 0.00021264, No Iterations 4
time step continuity errors : sum local = 1.01427e-06, global = -1.23135e-07, cumulative = 1.19314e-06
ExecutionTime = 4.29 s  ClockTime = 5 s

fieldMinMax minMax write:
    min(mag(U)) = 0 in cell 36960 at location (0.000485708 0 0.05)
    max(mag(U)) = 74.9743 in cell 95 at location (-0.000598615 9.3238e-06 0.05)

Time = 0.09

smoothSolver:  Solving for Ux, Initial residual = 0.00173429, Final residual = 0.000151845, No Iterations 5
smoothSolver:  Solving for Uy, Initial residual = 0.0240959, Final residual = 0.00045536, No Iterations 1
GAMG:  Solving for p, Initial residual = 0.00284797, Final residual = 0.000167984, No Iterations 3
time step continuity errors : sum local = 7.32437e-07, global = 6.98701e-08, cumulative = 1.26301e-06
ExecutionTime = 4.56 s  ClockTime = 6 s

fieldMinMax minMax write:
    min(mag(U)) = 0 in cell 36960 at location (0.000485708 0 0.05)
    max(mag(U)) = 74.9273 in cell 95 at location (-0.000598615 9.3238e-06 0.05)

Time = 0.1

smoothSolver:  Solving for Ux, Initial residual = 0.00152393, Final residual = 0.000135194, No Iterations 5
smoothSolver:  Solving for Uy, Initial residual = 0.0219614, Final residual = 0.000401545, No Iterations 1
GAMG:  Solving for p, Initial residual = 0.00261479, Final residual = 0.000209461, No Iterations 3
time step continuity errors : sum local = 9.0396e-07, global = 8.23264e-08, cumulative = 1.34534e-06
ExecutionTime = 4.84 s  ClockTime = 6 s

fieldMinMax minMax write:
    min(mag(U)) = 0 in cell 36960 at location (0.000485708 0 0.05)
    max(mag(U)) = 74.8747 in cell 95 at location (-0.000598615 9.3238e-06 0.05)

Time = 0.11

smoothSolver:  Solving for Ux, Initial residual = 0.00135505, Final residual = 0.000121729, No Iterations 5
smoothSolver:  Solving for Uy, Initial residual = 0.0199967, Final residual = 0.000355303, No Iterations 1
GAMG:  Solving for p, Initial residual = 0.00252985, Final residual = 0.000211347, No Iterations 3
time step continuity errors : sum local = 8.84057e-07, global = 7.92449e-08, cumulative = 1.42458e-06
ExecutionTime = 5.12 s  ClockTime = 6 s

fieldMinMax minMax write:
    min(mag(U)) = 0 in cell 36960 at location (0.000485708 0 0.05)
    max(mag(U)) = 74.8289 in cell 95 at location (-0.000598615 9.3238e-06 0.05)

Time = 0.12

smoothSolver:  Solving for Ux, Initial residual = 0.00121674, Final residual = 0.000110616, No Iterations 5
smoothSolver:  Solving for Uy, Initial residual = 0.0181388, Final residual = 0.000314772, No Iterations 1
GAMG:  Solving for p, Initial residual = 0.00244986, Final residual = 0.000194794, No Iterations 3
time step continuity errors : sum local = 7.84772e-07, global = 4.46116e-08, cumulative = 1.46919e-06
ExecutionTime = 5.41 s  ClockTime = 7 s

fieldMinMax minMax write:
    min(mag(U)) = 0 in cell 36960 at location (0.000485708 0 0.05)
    max(mag(U)) = 74.7929 in cell 95 at location (-0.000598615 9.3238e-06 0.05)

Time = 0.13

smoothSolver:  Solving for Ux, Initial residual = 0.00110364, Final residual = 0.000101292, No Iterations 5
smoothSolver:  Solving for Uy, Initial residual = 0.0165998, Final residual = 0.000279881, No Iterations 1
GAMG:  Solving for p, Initial residual = 0.00234029, Final residual = 0.000169387, No Iterations 3
time step continuity errors : sum local = 6.61539e-07, global = 4.06049e-08, cumulative = 1.5098e-06
ExecutionTime = 5.69 s  ClockTime = 7 s

fieldMinMax minMax write:
    min(mag(U)) = 0 in cell 36960 at location (0.000485708 0 0.05)
    max(mag(U)) = 74.7656 in cell 95 at location (-0.000598615 9.3238e-06 0.05)

Time = 0.14

smoothSolver:  Solving for Ux, Initial residual = 0.00101005, Final residual = 9.33577e-05, No Iterations 5
smoothSolver:  Solving for Uy, Initial residual = 0.0153432, Final residual = 0.000250142, No Iterations 1
GAMG:  Solving for p, Initial residual = 0.00222464, Final residual = 0.000149442, No Iterations 3
time step continuity errors : sum local = 5.696e-07, global = 4.24331e-08, cumulative = 1.55223e-06
ExecutionTime = 5.96 s  ClockTime = 7 s

fieldMinMax minMax write:
    min(mag(U)) = 0 in cell 36960 at location (0.000485708 0 0.05)
    max(mag(U)) = 74.745 in cell 95 at location (-0.000598615 9.3238e-06 0.05)

Time = 0.15

smoothSolver:  Solving for Ux, Initial residual = 0.000931093, Final residual = 8.65263e-05, No Iterations 5
smoothSolver:  Solving for Uy, Initial residual = 0.0142784, Final residual = 0.000224772, No Iterations 1
GAMG:  Solving for p, Initial residual = 0.00211491, Final residual = 0.000135709, No Iterations 3
time step continuity errors : sum local = 5.06722e-07, global = 4.48531e-08, cumulative = 1.59708e-06
ExecutionTime = 6.24 s  ClockTime = 7 s

fieldMinMax minMax write:
    min(mag(U)) = 0 in cell 36960 at location (0.000485708 0 0.05)
    max(mag(U)) = 74.7291 in cell 95 at location (-0.000598615 9.3238e-06 0.05)

Time = 0.16

smoothSolver:  Solving for Ux, Initial residual = 0.000863449, Final residual = 8.05827e-05, No Iterations 5
smoothSolver:  Solving for Uy, Initial residual = 0.0133519, Final residual = 0.000203623, No Iterations 1
GAMG:  Solving for p, Initial residual = 0.00200949, Final residual = 0.000126317, No Iterations 3
time step continuity errors : sum local = 4.63113e-07, global = 4.65719e-08, cumulative = 1.64366e-06
ExecutionTime = 6.51 s  ClockTime = 8 s

fieldMinMax minMax write:
    min(mag(U)) = 0 in cell 36960 at location (0.000485708 0 0.05)
    max(mag(U)) = 74.7163 in cell 95 at location (-0.000598615 9.3238e-06 0.05)

Time = 0.17

smoothSolver:  Solving for Ux, Initial residual = 0.000804698, Final residual = 7.53651e-05, No Iterations 5
smoothSolver:  Solving for Uy, Initial residual = 0.0125331, Final residual = 0.000187534, No Iterations 1
GAMG:  Solving for p, Initial residual = 0.00190206, Final residual = 0.000119299, No Iterations 3
time step continuity errors : sum local = 4.3013e-07, global = 4.66423e-08, cumulative = 1.6903e-06
ExecutionTime = 6.79 s  ClockTime = 8 s

fieldMinMax minMax write:
    min(mag(U)) = 0 in cell 36960 at location (0.000485708 0 0.05)
    max(mag(U)) = 74.7057 in cell 95 at location (-0.000598615 9.3238e-06 0.05)

Time = 0.18

smoothSolver:  Solving for Ux, Initial residual = 0.000753105, Final residual = 7.07483e-05, No Iterations 5
smoothSolver:  Solving for Uy, Initial residual = 0.0118033, Final residual = 0.000174356, No Iterations 1
GAMG:  Solving for p, Initial residual = 0.00180085, Final residual = 0.000114068, No Iterations 3
time step continuity errors : sum local = 4.04931e-07, global = 4.49683e-08, cumulative = 1.73527e-06
ExecutionTime = 7.06 s  ClockTime = 8 s

fieldMinMax minMax write:
    min(mag(U)) = 0 in cell 36960 at location (0.000485708 0 0.05)
    max(mag(U)) = 74.6967 in cell 95 at location (-0.000598615 9.3238e-06 0.05)

Time = 0.19

smoothSolver:  Solving for Ux, Initial residual = 0.000707413, Final residual = 6.66349e-05, No Iterations 5
smoothSolver:  Solving for Uy, Initial residual = 0.0111487, Final residual = 0.000162861, No Iterations 1
GAMG:  Solving for p, Initial residual = 0.00170662, Final residual = 0.000109002, No Iterations 3
time step continuity errors : sum local = 3.8143e-07, global = 4.24334e-08, cumulative = 1.7777e-06
ExecutionTime = 7.34 s  ClockTime = 9 s

fieldMinMax minMax write:
    min(mag(U)) = 0 in cell 36960 at location (0.000485708 0 0.05)
    max(mag(U)) = 74.6888 in cell 95 at location (-0.000598615 9.3238e-06 0.05)

Time = 0.2

smoothSolver:  Solving for Ux, Initial residual = 0.000666692, Final residual = 6.29471e-05, No Iterations 5
smoothSolver:  Solving for Uy, Initial residual = 0.0105586, Final residual = 0.00015253, No Iterations 1
GAMG:  Solving for p, Initial residual = 0.00161744, Final residual = 0.000104414, No Iterations 3
time step continuity errors : sum local = 3.60631e-07, global = 4.02694e-08, cumulative = 1.81797e-06
ExecutionTime = 7.61 s  ClockTime = 9 s

fieldMinMax minMax write:
    min(mag(U)) = 0 in cell 36960 at location (0.000485708 0 0.05)
    max(mag(U)) = 74.6819 in cell 95 at location (-0.000598615 9.3238e-06 0.05)

Time = 0.21

smoothSolver:  Solving for Ux, Initial residual = 0.000630239, Final residual = 5.96223e-05, No Iterations 5
smoothSolver:  Solving for Uy, Initial residual = 0.0100318, Final residual = 0.00014321, No Iterations 1
GAMG:  Solving for p, Initial residual = 0.00153381, Final residual = 0.000100824, No Iterations 3
time step continuity errors : sum local = 3.44159e-07, global = 3.9371e-08, cumulative = 1.85734e-06
ExecutionTime = 7.89 s  ClockTime = 9 s

fieldMinMax minMax write:
    min(mag(U)) = 0 in cell 36960 at location (0.000485708 0 0.05)
    max(mag(U)) = 74.6756 in cell 95 at location (-0.000598615 9.3238e-06 0.05)

Time = 0.22

smoothSolver:  Solving for Ux, Initial residual = 0.000597446, Final residual = 5.66096e-05, No Iterations 5
smoothSolver:  Solving for Uy, Initial residual = 0.00956133, Final residual = 0.000134773, No Iterations 1
GAMG:  Solving for p, Initial residual = 0.0014541, Final residual = 9.78939e-05, No Iterations 3
time step continuity errors : sum local = 3.30635e-07, global = 4.01169e-08, cumulative = 1.89746e-06
ExecutionTime = 8.14 s  ClockTime = 9 s

fieldMinMax minMax write:
    min(mag(U)) = 0 in cell 36960 at location (0.000485708 0 0.05)
    max(mag(U)) = 74.6701 in cell 95 at location (-0.000598615 9.3238e-06 0.05)

Time = 0.23

smoothSolver:  Solving for Ux, Initial residual = 0.000567784, Final residual = 5.38671e-05, No Iterations 5
smoothSolver:  Solving for Uy, Initial residual = 0.00913289, Final residual = 0.000127176, No Iterations 1
GAMG:  Solving for p, Initial residual = 0.00137707, Final residual = 9.52868e-05, No Iterations 3
time step continuity errors : sum local = 3.18743e-07, global = 4.25092e-08, cumulative = 1.93997e-06
ExecutionTime = 8.42 s  ClockTime = 10 s

fieldMinMax minMax write:
    min(mag(U)) = 0 in cell 36960 at location (0.000485708 0 0.05)
    max(mag(U)) = 74.665 in cell 95 at location (-0.000598615 9.3238e-06 0.05)

Time = 0.24

smoothSolver:  Solving for Ux, Initial residual = 0.000540813, Final residual = 5.13601e-05, No Iterations 5
smoothSolver:  Solving for Uy, Initial residual = 0.00873985, Final residual = 0.000120294, No Iterations 1
GAMG:  Solving for p, Initial residual = 0.00130546, Final residual = 9.33343e-05, No Iterations 3
time step continuity errors : sum local = 3.09448e-07, global = 4.63849e-08, cumulative = 1.98635e-06
ExecutionTime = 8.68 s  ClockTime = 10 s

fieldMinMax minMax write:
    min(mag(U)) = 0 in cell 36960 at location (0.000485708 0 0.05)
    max(mag(U)) = 74.6604 in cell 95 at location (-0.000598615 9.3238e-06 0.05)

Time = 0.25

smoothSolver:  Solving for Ux, Initial residual = 0.000516154, Final residual = 4.90596e-05, No Iterations 5
smoothSolver:  Solving for Uy, Initial residual = 0.00837483, Final residual = 0.000114087, No Iterations 1
GAMG:  Solving for p, Initial residual = 0.00123882, Final residual = 9.21851e-05, No Iterations 3
time step continuity errors : sum local = 3.03111e-07, global = 5.15911e-08, cumulative = 2.03794e-06
ExecutionTime = 8.95 s  ClockTime = 10 s

fieldMinMax minMax write:
    min(mag(U)) = 0 in cell 36960 at location (0.000485708 0 0.05)
    max(mag(U)) = 74.6562 in cell 95 at location (-0.000598615 9.3238e-06 0.05)

Time = 0.26

smoothSolver:  Solving for Ux, Initial residual = 0.000493513, Final residual = 4.69411e-05, No Iterations 5
smoothSolver:  Solving for Uy, Initial residual = 0.00803118, Final residual = 0.000108689, No Iterations 1
GAMG:  Solving for p, Initial residual = 0.00117621, Final residual = 9.17739e-05, No Iterations 3
time step continuity errors : sum local = 2.99409e-07, global = 5.81563e-08, cumulative = 2.0961e-06
ExecutionTime = 9.2 s  ClockTime = 10 s

fieldMinMax minMax write:
    min(mag(U)) = 0 in cell 36960 at location (0.000485708 0 0.05)
    max(mag(U)) = 74.6523 in cell 95 at location (-0.000598615 9.3238e-06 0.05)

Time = 0.27

smoothSolver:  Solving for Ux, Initial residual = 0.000472651, Final residual = 4.49841e-05, No Iterations 5
smoothSolver:  Solving for Uy, Initial residual = 0.0077021, Final residual = 0.000103925, No Iterations 1
GAMG:  Solving for p, Initial residual = 0.00111805, Final residual = 9.32338e-05, No Iterations 3
time step continuity errors : sum local = 3.01924e-07, global = 7.81886e-08, cumulative = 2.17429e-06
ExecutionTime = 9.52 s  ClockTime = 11 s

fieldMinMax minMax write:
    min(mag(U)) = 0 in cell 36960 at location (0.000485708 0 0.05)
    max(mag(U)) = 74.6487 in cell 95 at location (-0.000598615 9.3238e-06 0.05)

Time = 0.28

smoothSolver:  Solving for Ux, Initial residual = 0.000453426, Final residual = 4.31706e-05, No Iterations 5
smoothSolver:  Solving for Uy, Initial residual = 0.00738576, Final residual = 9.95948e-05, No Iterations 1
GAMG:  Solving for p, Initial residual = 0.00106488, Final residual = 9.77461e-05, No Iterations 3
time step continuity errors : sum local = 3.14523e-07, global = 9.63e-08, cumulative = 2.27059e-06
ExecutionTime = 9.8 s  ClockTime = 11 s

fieldMinMax minMax write:
    min(mag(U)) = 0 in cell 36960 at location (0.000485708 0 0.05)
    max(mag(U)) = 74.6453 in cell 95 at location (-0.000598615 9.3238e-06 0.05)

Time = 0.29

smoothSolver:  Solving for Ux, Initial residual = 0.000435562, Final residual = 4.14855e-05, No Iterations 5
smoothSolver:  Solving for Uy, Initial residual = 0.00707898, Final residual = 9.55786e-05, No Iterations 1
GAMG:  Solving for p, Initial residual = 0.00101781, Final residual = 0.000100501, No Iterations 3
time step continuity errors : sum local = 3.21216e-07, global = 1.07262e-07, cumulative = 2.37785e-06
ExecutionTime = 10.1 s  ClockTime = 11 s

fieldMinMax minMax write:
    min(mag(U)) = 0 in cell 36960 at location (0.000485708 0 0.05)
    max(mag(U)) = 74.6422 in cell 95 at location (-0.000598615 9.3238e-06 0.05)

Time = 0.3

smoothSolver:  Solving for Ux, Initial residual = 0.000418978, Final residual = 3.99157e-05, No Iterations 5
smoothSolver:  Solving for Uy, Initial residual = 0.00678089, Final residual = 9.18236e-05, No Iterations 1
GAMG:  Solving for p, Initial residual = 0.000972539, Final residual = 7.04669e-05, No Iterations 4
time step continuity errors : sum local = 2.23706e-07, global = -5.09942e-08, cumulative = 2.32686e-06
ExecutionTime = 10.38 s  ClockTime = 12 s

fieldMinMax minMax write:
    min(mag(U)) = 0 in cell 36960 at location (0.000485708 0 0.05)
    max(mag(U)) = 74.6392 in cell 95 at location (-0.000598615 9.3238e-06 0.05)

Time = 0.31

smoothSolver:  Solving for Ux, Initial residual = 0.00040355, Final residual = 3.84497e-05, No Iterations 5
smoothSolver:  Solving for Uy, Initial residual = 0.00648773, Final residual = 8.81789e-05, No Iterations 1
GAMG:  Solving for p, Initial residual = 0.000914502, Final residual = 8.30269e-05, No Iterations 3
time step continuity errors : sum local = 2.60941e-07, global = -2.8439e-08, cumulative = 2.29842e-06
ExecutionTime = 10.64 s  ClockTime = 12 s

fieldMinMax minMax write:
    min(mag(U)) = 0 in cell 36960 at location (0.000485708 0 0.05)
    max(mag(U)) = 74.6364 in cell 95 at location (-0.000598615 9.3238e-06 0.05)

Time = 0.32

smoothSolver:  Solving for Ux, Initial residual = 0.00038906, Final residual = 3.70775e-05, No Iterations 5
smoothSolver:  Solving for Uy, Initial residual = 0.00622258, Final residual = 8.50651e-05, No Iterations 1
GAMG:  Solving for p, Initial residual = 0.000879728, Final residual = 8.49815e-05, No Iterations 3
time step continuity errors : sum local = 2.65525e-07, global = -2.20212e-08, cumulative = 2.2764e-06
ExecutionTime = 10.92 s  ClockTime = 12 s

fieldMinMax minMax write:
    min(mag(U)) = 0 in cell 36960 at location (0.000485708 0 0.05)
    max(mag(U)) = 74.6338 in cell 95 at location (-0.000598615 9.3238e-06 0.05)

Time = 0.33

smoothSolver:  Solving for Ux, Initial residual = 0.00037577, Final residual = 3.57905e-05, No Iterations 5
smoothSolver:  Solving for Uy, Initial residual = 0.00595479, Final residual = 8.19916e-05, No Iterations 1
GAMG:  Solving for p, Initial residual = 0.000835757, Final residual = 8.06181e-05, No Iterations 3
time step continuity errors : sum local = 2.50726e-07, global = -1.32847e-09, cumulative = 2.27507e-06
ExecutionTime = 11.21 s  ClockTime = 13 s

fieldMinMax minMax write:
    min(mag(U)) = 0 in cell 36960 at location (0.000485708 0 0.05)
    max(mag(U)) = 74.6313 in cell 95 at location (-0.000598615 9.3238e-06 0.05)

Time = 0.34

smoothSolver:  Solving for Ux, Initial residual = 0.000363317, Final residual = 3.45809e-05, No Iterations 5
smoothSolver:  Solving for Uy, Initial residual = 0.00569317, Final residual = 7.91125e-05, No Iterations 1
GAMG:  Solving for p, Initial residual = 0.000785845, Final residual = 7.69987e-05, No Iterations 3
time step continuity errors : sum local = 2.38438e-07, global = 1.83662e-08, cumulative = 2.29343e-06
ExecutionTime = 11.49 s  ClockTime = 13 s

fieldMinMax minMax write:
    min(mag(U)) = 0 in cell 36960 at location (0.000485708 0 0.05)
    max(mag(U)) = 74.629 in cell 95 at location (-0.000598615 9.3238e-06 0.05)

Time = 0.35

smoothSolver:  Solving for Ux, Initial residual = 0.000351524, Final residual = 3.34421e-05, No Iterations 5
smoothSolver:  Solving for Uy, Initial residual = 0.00544108, Final residual = 7.64423e-05, No Iterations 1
GAMG:  Solving for p, Initial residual = 0.000742816, Final residual = 5.85114e-05, No Iterations 4
time step continuity errors : sum local = 1.80359e-07, global = -3.61883e-08, cumulative = 2.25724e-06
ExecutionTime = 11.79 s  ClockTime = 13 s

fieldMinMax minMax write:
    min(mag(U)) = 0 in cell 36960 at location (0.000485708 0 0.05)
    max(mag(U)) = 74.6268 in cell 95 at location (-0.000598615 9.3238e-06 0.05)

Time = 0.36

smoothSolver:  Solving for Ux, Initial residual = 0.000340329, Final residual = 3.23679e-05, No Iterations 5
smoothSolver:  Solving for Uy, Initial residual = 0.00518411, Final residual = 7.38478e-05, No Iterations 1
GAMG:  Solving for p, Initial residual = 0.000702696, Final residual = 6.64493e-05, No Iterations 3
time step continuity errors : sum local = 2.03232e-07, global = -2.63162e-08, cumulative = 2.23093e-06
ExecutionTime = 12.03 s  ClockTime = 13 s

fieldMinMax minMax write:
    min(mag(U)) = 0 in cell 36960 at location (0.000485708 0 0.05)
    max(mag(U)) = 74.6247 in cell 95 at location (-0.000598615 9.3238e-06 0.05)

Time = 0.37

smoothSolver:  Solving for Ux, Initial residual = 0.000329693, Final residual = 3.13529e-05, No Iterations 5
smoothSolver:  Solving for Uy, Initial residual = 0.00497365, Final residual = 7.17693e-05, No Iterations 1
GAMG:  Solving for p, Initial residual = 0.000681672, Final residual = 4.78325e-05, No Iterations 4
time step continuity errors : sum local = 1.45998e-07, global = -6.83028e-09, cumulative = 2.2241e-06
ExecutionTime = 12.3 s  ClockTime = 14 s

fieldMinMax minMax write:
    min(mag(U)) = 0 in cell 36960 at location (0.000485708 0 0.05)
    max(mag(U)) = 74.6227 in cell 95 at location (-0.000598615 9.3238e-06 0.05)

Time = 0.38

smoothSolver:  Solving for Ux, Initial residual = 0.000319967, Final residual = 3.03924e-05, No Iterations 5
smoothSolver:  Solving for Uy, Initial residual = 0.0047233, Final residual = 6.95222e-05, No Iterations 1
GAMG:  Solving for p, Initial residual = 0.000616835, Final residual = 5.50101e-05, No Iterations 3
time step continuity errors : sum local = 1.6742e-07, global = 8.30938e-09, cumulative = 2.23241e-06
ExecutionTime = 12.54 s  ClockTime = 14 s

fieldMinMax minMax write:
    min(mag(U)) = 0 in cell 36960 at location (0.000485708 0 0.05)
    max(mag(U)) = 74.6208 in cell 95 at location (-0.000598615 9.3238e-06 0.05)

Time = 0.39

smoothSolver:  Solving for Ux, Initial residual = 0.000310416, Final residual = 2.9482e-05, No Iterations 5
smoothSolver:  Solving for Uy, Initial residual = 0.00452144, Final residual = 6.76918e-05, No Iterations 1
GAMG:  Solving for p, Initial residual = 0.000617466, Final residual = 5.34728e-05, No Iterations 4
time step continuity errors : sum local = 1.62595e-07, global = -2.8681e-08, cumulative = 2.20373e-06
ExecutionTime = 12.81 s  ClockTime = 14 s

fieldMinMax minMax write:
    min(mag(U)) = 0 in cell 36960 at location (0.000485708 0 0.05)
    max(mag(U)) = 74.6189 in cell 95 at location (-0.000598615 9.3238e-06 0.05)

Time = 0.4

smoothSolver:  Solving for Ux, Initial residual = 0.00030152, Final residual = 2.86181e-05, No Iterations 5
smoothSolver:  Solving for Uy, Initial residual = 0.0042891, Final residual = 6.56924e-05, No Iterations 1
GAMG:  Solving for p, Initial residual = 0.000571325, Final residual = 5.66447e-05, No Iterations 3
time step continuity errors : sum local = 1.71723e-07, global = 9.29776e-11, cumulative = 2.20382e-06
ExecutionTime = 13.06 s  ClockTime = 14 s

fieldMinMax minMax write:
    min(mag(U)) = 0 in cell 36960 at location (0.000485708 0 0.05)
    max(mag(U)) = 74.6172 in cell 95 at location (-0.000598615 9.3238e-06 0.05)

Time = 0.41

smoothSolver:  Solving for Ux, Initial residual = 0.000292866, Final residual = 2.77969e-05, No Iterations 5
smoothSolver:  Solving for Uy, Initial residual = 0.00408757, Final residual = 6.40059e-05, No Iterations 1
GAMG:  Solving for p, Initial residual = 0.000559374, Final residual = 4.78197e-05, No Iterations 4
time step continuity errors : sum local = 1.44946e-07, global = -2.19718e-08, cumulative = 2.18185e-06
ExecutionTime = 13.32 s  ClockTime = 15 s

fieldMinMax minMax write:
    min(mag(U)) = 0 in cell 36960 at location (0.000485708 0 0.05)
    max(mag(U)) = 74.6156 in cell 95 at location (-0.000598615 9.3238e-06 0.05)

Time = 0.42

smoothSolver:  Solving for Ux, Initial residual = 0.000284751, Final residual = 2.70155e-05, No Iterations 5
smoothSolver:  Solving for Uy, Initial residual = 0.00387042, Final residual = 6.21823e-05, No Iterations 1
GAMG:  Solving for p, Initial residual = 0.000513066, Final residual = 4.9812e-05, No Iterations 3
time step continuity errors : sum local = 1.50843e-07, global = 5.86929e-09, cumulative = 2.18772e-06
ExecutionTime = 13.56 s  ClockTime = 15 s

fieldMinMax minMax write:
    min(mag(U)) = 0 in cell 36960 at location (0.000485708 0 0.05)
    max(mag(U)) = 74.614 in cell 95 at location (-0.000598615 9.3238e-06 0.05)

Time = 0.43

smoothSolver:  Solving for Ux, Initial residual = 0.000276855, Final residual = 2.62709e-05, No Iterations 5
smoothSolver:  Solving for Uy, Initial residual = 0.00368246, Final residual = 6.06415e-05, No Iterations 1
GAMG:  Solving for p, Initial residual = 0.000505105, Final residual = 3.98773e-05, No Iterations 4
time step continuity errors : sum local = 1.20915e-07, global = -1.52557e-08, cumulative = 2.17246e-06
ExecutionTime = 13.83 s  ClockTime = 15 s

fieldMinMax minMax write:
    min(mag(U)) = 0 in cell 36960 at location (0.000485708 0 0.05)
    max(mag(U)) = 74.6125 in cell 95 at location (-0.000598615 9.3238e-06 0.05)

Time = 0.44

smoothSolver:  Solving for Ux, Initial residual = 0.000269473, Final residual = 2.55606e-05, No Iterations 5
smoothSolver:  Solving for Uy, Initial residual = 0.00348662, Final residual = 5.89834e-05, No Iterations 1
GAMG:  Solving for p, Initial residual = 0.000459682, Final residual = 4.51834e-05, No Iterations 3
time step continuity errors : sum local = 1.37236e-07, global = 7.27025e-09, cumulative = 2.17973e-06
ExecutionTime = 14.08 s  ClockTime = 15 s

fieldMinMax minMax write:
    min(mag(U)) = 0 in cell 36960 at location (0.000485708 0 0.05)
    max(mag(U)) = 74.6111 in cell 95 at location (-0.000598615 9.3238e-06 0.05)

Time = 0.45

smoothSolver:  Solving for Ux, Initial residual = 0.000262219, Final residual = 2.48821e-05, No Iterations 5
smoothSolver:  Solving for Uy, Initial residual = 0.00331675, Final residual = 5.75677e-05, No Iterations 1
GAMG:  Solving for p, Initial residual = 0.000454085, Final residual = 3.13947e-05, No Iterations 4
time step continuity errors : sum local = 9.55796e-08, global = -7.66521e-09, cumulative = 2.17207e-06
ExecutionTime = 14.35 s  ClockTime = 16 s

fieldMinMax minMax write:
    min(mag(U)) = 0 in cell 36960 at location (0.000485708 0 0.05)
    max(mag(U)) = 74.6097 in cell 95 at location (-0.000598615 9.3238e-06 0.05)

Time = 0.46

smoothSolver:  Solving for Ux, Initial residual = 0.000255466, Final residual = 2.42335e-05, No Iterations 5
smoothSolver:  Solving for Uy, Initial residual = 0.00314791, Final residual = 5.60587e-05, No Iterations 1
GAMG:  Solving for p, Initial residual = 0.000408037, Final residual = 4.00034e-05, No Iterations 3
time step continuity errors : sum local = 1.2229e-07, global = 6.14131e-09, cumulative = 2.17821e-06
ExecutionTime = 14.62 s  ClockTime = 16 s

fieldMinMax minMax write:
    min(mag(U)) = 0 in cell 36960 at location (0.000485708 0 0.05)
    max(mag(U)) = 74.6084 in cell 95 at location (-0.000598615 9.3238e-06 0.05)

Time = 0.47

smoothSolver:  Solving for Ux, Initial residual = 0.000248697, Final residual = 2.36128e-05, No Iterations 5
smoothSolver:  Solving for Uy, Initial residual = 0.00300292, Final residual = 5.4762e-05, No Iterations 1
GAMG:  Solving for p, Initial residual = 0.000405359, Final residual = 3.98296e-05, No Iterations 3
time step continuity errors : sum local = 1.22136e-07, global = 2.96568e-09, cumulative = 2.18117e-06
ExecutionTime = 14.89 s  ClockTime = 16 s

fieldMinMax minMax write:
    min(mag(U)) = 0 in cell 36960 at location (0.000485708 0 0.05)
    max(mag(U)) = 74.6072 in cell 95 at location (-0.000598615 9.3238e-06 0.05)

Time = 0.48

smoothSolver:  Solving for Ux, Initial residual = 0.000242384, Final residual = 2.30181e-05, No Iterations 5
smoothSolver:  Solving for Uy, Initial residual = 0.00286561, Final residual = 5.3429e-05, No Iterations 1
GAMG:  Solving for p, Initial residual = 0.000372826, Final residual = 2.63192e-05, No Iterations 4
time step continuity errors : sum local = 8.11281e-08, global = -1.89352e-08, cumulative = 2.16224e-06
ExecutionTime = 15.2 s  ClockTime = 17 s

fieldMinMax minMax write:
    min(mag(U)) = 0 in cell 36960 at location (0.000485708 0 0.05)
    max(mag(U)) = 74.606 in cell 95 at location (-0.000598615 9.3238e-06 0.05)

Time = 0.49

smoothSolver:  Solving for Ux, Initial residual = 0.000236387, Final residual = 2.24478e-05, No Iterations 5
smoothSolver:  Solving for Uy, Initial residual = 0.00275485, Final residual = 5.21864e-05, No Iterations 1
GAMG:  Solving for p, Initial residual = 0.000342562, Final residual = 2.24446e-05, No Iterations 4
time step continuity errors : sum local = 6.96365e-08, global = -2.0435e-08, cumulative = 2.1418e-06
ExecutionTime = 15.49 s  ClockTime = 17 s

fieldMinMax minMax write:
    min(mag(U)) = 0 in cell 36960 at location (0.000485708 0 0.05)
    max(mag(U)) = 74.6048 in cell 95 at location (-0.000598615 9.3238e-06 0.05)

Time = 0.5

smoothSolver:  Solving for Ux, Initial residual = 0.000230365, Final residual = 2.19005e-05, No Iterations 5
smoothSolver:  Solving for Uy, Initial residual = 0.0026555, Final residual = 5.10605e-05, No Iterations 1
GAMG:  Solving for p, Initial residual = 0.000326173, Final residual = 2.3476e-05, No Iterations 4
time step continuity errors : sum local = 7.32013e-08, global = -1.93031e-08, cumulative = 2.1225e-06
ExecutionTime = 16.19 s  ClockTime = 18 s

fieldMinMax minMax write:
    min(mag(U)) = 0 in cell 36960 at location (0.000485708 0 0.05)
    max(mag(U)) = 74.6037 in cell 95 at location (-0.000598615 9.3238e-06 0.05)

yPlus yPlus write:
    writing field yPlus
    patch topWall y+ : min = 0.0365703, max = 0.352071, average = 0.273815
    patch bottomWall y+ : min = 0.890899, max = 4.5832, average = 1.03682
writeCellCentres writeCellCentres write:
    writing cell-volumes field C to 0.5
    Writing the x component field of the cell-centres Cx to 0.5
    Writing the y component field of the cell-centres Cy to 0.5
    Writing the z component field of the cell-centres Cz to 0.5
wallShearStress wallShearStress write:
    writing field wallShearStress
    min/max(topWall) = (-3.02614e-09 -6.08799e-07 0), (6.37397e-09 -6.92201e-09 0)
    min/max(bottomWall) = (-46.5477 -0.880273 0), (-1.75893 1.16887e-09 0)
Time = 0.51

smoothSolver:  Solving for Ux, Initial residual = 0.000224683, Final residual = 2.13746e-05, No Iterations 5
smoothSolver:  Solving for Uy, Initial residual = 0.00256754, Final residual = 4.99431e-05, No Iterations 1
GAMG:  Solving for p, Initial residual = 0.000311027, Final residual = 2.40284e-05, No Iterations 4
time step continuity errors : sum local = 7.54117e-08, global = -1.9262e-08, cumulative = 2.10324e-06
ExecutionTime = 16.86 s  ClockTime = 19 s

fieldMinMax minMax write:
    min(mag(U)) = 0 in cell 36960 at location (0.000485708 0 0.05)
    max(mag(U)) = 74.6027 in cell 95 at location (-0.000598615 9.3238e-06 0.05)

Time = 0.52

smoothSolver:  Solving for Ux, Initial residual = 0.000219263, Final residual = 2.08691e-05, No Iterations 5
smoothSolver:  Solving for Uy, Initial residual = 0.00248958, Final residual = 4.88663e-05, No Iterations 1
GAMG:  Solving for p, Initial residual = 0.000294635, Final residual = 2.38335e-05, No Iterations 4
time step continuity errors : sum local = 7.53439e-08, global = -1.95208e-08, cumulative = 2.08372e-06
ExecutionTime = 17.15 s  ClockTime = 19 s

fieldMinMax minMax write:
    min(mag(U)) = 0 in cell 36960 at location (0.000485708 0 0.05)
    max(mag(U)) = 74.6017 in cell 95 at location (-0.000598615 9.3238e-06 0.05)

Time = 0.53

smoothSolver:  Solving for Ux, Initial residual = 0.000214045, Final residual = 2.03825e-05, No Iterations 5
smoothSolver:  Solving for Uy, Initial residual = 0.00241438, Final residual = 4.78281e-05, No Iterations 1
GAMG:  Solving for p, Initial residual = 0.000278943, Final residual = 2.20552e-05, No Iterations 4
time step continuity errors : sum local = 7.02458e-08, global = -1.71155e-08, cumulative = 2.0666e-06
ExecutionTime = 17.45 s  ClockTime = 20 s

fieldMinMax minMax write:
    min(mag(U)) = 0 in cell 36960 at location (0.000485708 0 0.05)
    max(mag(U)) = 74.6007 in cell 95 at location (-0.000598615 9.3238e-06 0.05)

Time = 0.54

smoothSolver:  Solving for Ux, Initial residual = 0.000209077, Final residual = 1.99139e-05, No Iterations 5
smoothSolver:  Solving for Uy, Initial residual = 0.00234262, Final residual = 4.68252e-05, No Iterations 1
GAMG:  Solving for p, Initial residual = 0.000263341, Final residual = 2.05957e-05, No Iterations 4
time step continuity errors : sum local = 6.6142e-08, global = -1.54921e-08, cumulative = 2.05111e-06
ExecutionTime = 17.74 s  ClockTime = 20 s

fieldMinMax minMax write:
    min(mag(U)) = 0 in cell 36960 at location (0.000485708 0 0.05)
    max(mag(U)) = 74.5998 in cell 95 at location (-0.000598615 9.3238e-06 0.05)

Time = 0.55

smoothSolver:  Solving for Ux, Initial residual = 0.000204239, Final residual = 1.94622e-05, No Iterations 5
smoothSolver:  Solving for Uy, Initial residual = 0.00227063, Final residual = 4.58508e-05, No Iterations 1
GAMG:  Solving for p, Initial residual = 0.000250872, Final residual = 1.90042e-05, No Iterations 4
time step continuity errors : sum local = 6.15194e-08, global = -1.39874e-08, cumulative = 2.03712e-06
ExecutionTime = 18.02 s  ClockTime = 20 s

fieldMinMax minMax write:
    min(mag(U)) = 0 in cell 36960 at location (0.000485708 0 0.05)
    max(mag(U)) = 74.5989 in cell 95 at location (-0.000598615 9.3238e-06 0.05)

Time = 0.56

smoothSolver:  Solving for Ux, Initial residual = 0.000199592, Final residual = 1.90264e-05, No Iterations 5
smoothSolver:  Solving for Uy, Initial residual = 0.00219957, Final residual = 4.49032e-05, No Iterations 1
GAMG:  Solving for p, Initial residual = 0.000239304, Final residual = 1.71822e-05, No Iterations 4
time step continuity errors : sum local = 5.6079e-08, global = -1.3762e-08, cumulative = 2.02336e-06
ExecutionTime = 18.3 s  ClockTime = 21 s

fieldMinMax minMax write:
    min(mag(U)) = 0 in cell 36960 at location (0.000485708 0 0.05)
    max(mag(U)) = 74.598 in cell 95 at location (-0.000598615 9.3238e-06 0.05)

Time = 0.57

smoothSolver:  Solving for Ux, Initial residual = 0.000195107, Final residual = 1.86058e-05, No Iterations 5
smoothSolver:  Solving for Uy, Initial residual = 0.0021295, Final residual = 4.39847e-05, No Iterations 1
GAMG:  Solving for p, Initial residual = 0.000228062, Final residual = 1.91839e-05, No Iterations 4
time step continuity errors : sum local = 6.31342e-08, global = -1.46521e-08, cumulative = 2.00871e-06
ExecutionTime = 18.61 s  ClockTime = 21 s

fieldMinMax minMax write:
    min(mag(U)) = 0 in cell 36960 at location (0.000485708 0 0.05)
    max(mag(U)) = 74.5972 in cell 95 at location (-0.000598615 9.3238e-06 0.05)

Time = 0.58

smoothSolver:  Solving for Ux, Initial residual = 0.000190671, Final residual = 1.81995e-05, No Iterations 5
smoothSolver:  Solving for Uy, Initial residual = 0.002056, Final residual = 4.30893e-05, No Iterations 1
GAMG:  Solving for p, Initial residual = 0.000223126, Final residual = 1.6983e-05, No Iterations 4
time step continuity errors : sum local = 5.63072e-08, global = -1.06284e-08, cumulative = 1.99808e-06
ExecutionTime = 18.91 s  ClockTime = 21 s

fieldMinMax minMax write:
    min(mag(U)) = 0 in cell 36960 at location (0.000485708 0 0.05)
    max(mag(U)) = 74.5964 in cell 95 at location (-0.000598615 9.3238e-06 0.05)

Time = 0.59

smoothSolver:  Solving for Ux, Initial residual = 0.000186607, Final residual = 1.78067e-05, No Iterations 5
smoothSolver:  Solving for Uy, Initial residual = 0.00199371, Final residual = 4.22367e-05, No Iterations 1
GAMG:  Solving for p, Initial residual = 0.000210484, Final residual = 1.51598e-05, No Iterations 4
time step continuity errors : sum local = 5.07552e-08, global = -1.17758e-08, cumulative = 1.9863e-06
ExecutionTime = 19.19 s  ClockTime = 21 s

fieldMinMax minMax write:
    min(mag(U)) = 0 in cell 36960 at location (0.000485708 0 0.05)
    max(mag(U)) = 74.5957 in cell 95 at location (-0.000598615 9.3238e-06 0.05)

Time = 0.6

smoothSolver:  Solving for Ux, Initial residual = 0.000182501, Final residual = 1.74267e-05, No Iterations 5
smoothSolver:  Solving for Uy, Initial residual = 0.00192763, Final residual = 4.14111e-05, No Iterations 1
GAMG:  Solving for p, Initial residual = 0.000201001, Final residual = 1.61341e-05, No Iterations 4
time step continuity errors : sum local = 5.44569e-08, global = -1.03199e-08, cumulative = 1.97598e-06
ExecutionTime = 19.47 s  ClockTime = 22 s

fieldMinMax minMax write:
    min(mag(U)) = 0 in cell 36960 at location (0.000485708 0 0.05)
    max(mag(U)) = 74.595 in cell 95 at location (-0.000598615 9.3238e-06 0.05)

Time = 0.61

smoothSolver:  Solving for Ux, Initial residual = 0.000178468, Final residual = 1.7059e-05, No Iterations 5
smoothSolver:  Solving for Uy, Initial residual = 0.00186029, Final residual = 4.06049e-05, No Iterations 1
GAMG:  Solving for p, Initial residual = 0.00019786, Final residual = 1.41095e-05, No Iterations 5
time step continuity errors : sum local = 4.79824e-08, global = -1.58677e-08, cumulative = 1.96012e-06
ExecutionTime = 19.8 s  ClockTime = 22 s

fieldMinMax minMax write:
    min(mag(U)) = 0 in cell 36960 at location (0.000485708 0 0.05)
    max(mag(U)) = 74.5943 in cell 95 at location (-0.000598615 9.3238e-06 0.05)

Time = 0.62

smoothSolver:  Solving for Ux, Initial residual = 0.000174676, Final residual = 1.67028e-05, No Iterations 5
smoothSolver:  Solving for Uy, Initial residual = 0.001804, Final residual = 3.98377e-05, No Iterations 1
GAMG:  Solving for p, Initial residual = 0.000187529, Final residual = 1.6707e-05, No Iterations 4
time step continuity errors : sum local = 5.73026e-08, global = -1.13857e-08, cumulative = 1.94873e-06
ExecutionTime = 20.09 s  ClockTime = 22 s

fieldMinMax minMax write:
    min(mag(U)) = 0 in cell 36960 at location (0.000485708 0 0.05)
    max(mag(U)) = 74.5936 in cell 95 at location (-0.000598615 9.3238e-06 0.05)

Time = 0.63

smoothSolver:  Solving for Ux, Initial residual = 0.000170993, Final residual = 1.63576e-05, No Iterations 5
smoothSolver:  Solving for Uy, Initial residual = 0.00175084, Final residual = 3.9107e-05, No Iterations 1
GAMG:  Solving for p, Initial residual = 0.000183109, Final residual = 1.82393e-05, No Iterations 4
time step continuity errors : sum local = 6.3101e-08, global = 1.3147e-08, cumulative = 1.96188e-06
ExecutionTime = 20.36 s  ClockTime = 23 s

fieldMinMax minMax write:
    min(mag(U)) = 0 in cell 36960 at location (0.000485708 0 0.05)
    max(mag(U)) = 74.5929 in cell 95 at location (-0.000598615 9.3238e-06 0.05)

Time = 0.64

smoothSolver:  Solving for Ux, Initial residual = 0.00016737, Final residual = 1.60229e-05, No Iterations 5
smoothSolver:  Solving for Uy, Initial residual = 0.00170354, Final residual = 3.84047e-05, No Iterations 1
GAMG:  Solving for p, Initial residual = 0.000176894, Final residual = 1.6739e-05, No Iterations 6
time step continuity errors : sum local = 5.83864e-08, global = 2.15468e-08, cumulative = 1.98342e-06
ExecutionTime = 20.71 s  ClockTime = 23 s

fieldMinMax minMax write:
    min(mag(U)) = 0 in cell 36960 at location (0.000485708 0 0.05)
    max(mag(U)) = 74.5923 in cell 95 at location (-0.000598615 9.3238e-06 0.05)

Time = 0.65

smoothSolver:  Solving for Ux, Initial residual = 0.000163924, Final residual = 1.56983e-05, No Iterations 5
smoothSolver:  Solving for Uy, Initial residual = 0.00166488, Final residual = 3.77443e-05, No Iterations 1
GAMG:  Solving for p, Initial residual = 0.000168477, Final residual = 1.66979e-05, No Iterations 6
time step continuity errors : sum local = 5.87589e-08, global = 2.20653e-08, cumulative = 2.00549e-06
ExecutionTime = 21.06 s  ClockTime = 23 s

fieldMinMax minMax write:
    min(mag(U)) = 0 in cell 36960 at location (0.000485708 0 0.05)
    max(mag(U)) = 74.5917 in cell 95 at location (-0.000598615 9.3238e-06 0.05)

Time = 0.66

smoothSolver:  Solving for Ux, Initial residual = 0.0001605, Final residual = 1.53832e-05, No Iterations 5
smoothSolver:  Solving for Uy, Initial residual = 0.00162932, Final residual = 3.71005e-05, No Iterations 1
GAMG:  Solving for p, Initial residual = 0.00016258, Final residual = 1.20949e-05, No Iterations 7
time step continuity errors : sum local = 4.28849e-08, global = -1.15004e-08, cumulative = 1.99399e-06
ExecutionTime = 21.44 s  ClockTime = 24 s

fieldMinMax minMax write:
    min(mag(U)) = 0 in cell 36960 at location (0.000485708 0 0.05)
    max(mag(U)) = 74.5911 in cell 95 at location (-0.000598615 9.3238e-06 0.05)

Time = 0.67

smoothSolver:  Solving for Ux, Initial residual = 0.00015726, Final residual = 1.50772e-05, No Iterations 5
smoothSolver:  Solving for Uy, Initial residual = 0.00160502, Final residual = 3.64915e-05, No Iterations 1
GAMG:  Solving for p, Initial residual = 0.000152849, Final residual = 1.173e-05, No Iterations 5
time step continuity errors : sum local = 4.19219e-08, global = -1.29361e-08, cumulative = 1.98105e-06
ExecutionTime = 21.78 s  ClockTime = 24 s

fieldMinMax minMax write:
    min(mag(U)) = 0 in cell 36960 at location (0.000485708 0 0.05)
    max(mag(U)) = 74.5906 in cell 95 at location (-0.000598615 9.3238e-06 0.05)

Time = 0.68

smoothSolver:  Solving for Ux, Initial residual = 0.000154073, Final residual = 1.478e-05, No Iterations 5
smoothSolver:  Solving for Uy, Initial residual = 0.00158629, Final residual = 3.5907e-05, No Iterations 1
GAMG:  Solving for p, Initial residual = 0.000146264, Final residual = 1.19119e-05, No Iterations 4
time step continuity errors : sum local = 4.28998e-08, global = 7.06772e-09, cumulative = 1.98812e-06
ExecutionTime = 22.09 s  ClockTime = 24 s

fieldMinMax minMax write:
    min(mag(U)) = 0 in cell 36960 at location (0.000485708 0 0.05)
    max(mag(U)) = 74.59 in cell 95 at location (-0.000598615 9.3238e-06 0.05)

Time = 0.69

smoothSolver:  Solving for Ux, Initial residual = 0.000151068, Final residual = 1.44912e-05, No Iterations 5
smoothSolver:  Solving for Uy, Initial residual = 0.00158088, Final residual = 3.53595e-05, No Iterations 1
GAMG:  Solving for p, Initial residual = 0.000138246, Final residual = 1.1484e-05, No Iterations 6
time step continuity errors : sum local = 4.17236e-08, global = 1.54499e-08, cumulative = 2.00357e-06
ExecutionTime = 22.43 s  ClockTime = 25 s

fieldMinMax minMax write:
    min(mag(U)) = 0 in cell 36960 at location (0.000485708 0 0.05)
    max(mag(U)) = 74.5895 in cell 95 at location (-0.000598615 9.3238e-06 0.05)

Time = 0.7

smoothSolver:  Solving for Ux, Initial residual = 0.00014791, Final residual = 1.42104e-05, No Iterations 5
smoothSolver:  Solving for Uy, Initial residual = 0.00157125, Final residual = 3.4824e-05, No Iterations 1
GAMG:  Solving for p, Initial residual = 0.00013484, Final residual = 1.03324e-05, No Iterations 7
time step continuity errors : sum local = 3.77802e-08, global = -1.01271e-08, cumulative = 1.99344e-06
ExecutionTime = 22.8 s  ClockTime = 25 s

fieldMinMax minMax write:
    min(mag(U)) = 0 in cell 36960 at location (0.000485708 0 0.05)
    max(mag(U)) = 74.589 in cell 95 at location (-0.000598615 9.3238e-06 0.05)

Time = 0.71

smoothSolver:  Solving for Ux, Initial residual = 0.000145042, Final residual = 1.39374e-05, No Iterations 5
smoothSolver:  Solving for Uy, Initial residual = 0.00157557, Final residual = 3.43106e-05, No Iterations 1
GAMG:  Solving for p, Initial residual = 0.000128112, Final residual = 1.06123e-05, No Iterations 5
time step continuity errors : sum local = 3.9096e-08, global = -1.26463e-08, cumulative = 1.9808e-06
ExecutionTime = 23.11 s  ClockTime = 25 s

fieldMinMax minMax write:
    min(mag(U)) = 0 in cell 36960 at location (0.000485708 0 0.05)
    max(mag(U)) = 74.5885 in cell 95 at location (-0.000598615 9.3238e-06 0.05)

Time = 0.72

smoothSolver:  Solving for Ux, Initial residual = 0.000142255, Final residual = 1.36717e-05, No Iterations 5
smoothSolver:  Solving for Uy, Initial residual = 0.00158485, Final residual = 3.38236e-05, No Iterations 1
GAMG:  Solving for p, Initial residual = 0.0001221, Final residual = 1.15153e-05, No Iterations 4
time step continuity errors : sum local = 4.27456e-08, global = -8.57826e-09, cumulative = 1.97222e-06
ExecutionTime = 23.4 s  ClockTime = 26 s

fieldMinMax minMax write:
    min(mag(U)) = 0 in cell 36960 at location (0.000485708 0 0.05)
    max(mag(U)) = 74.5881 in cell 95 at location (-0.000598615 9.3238e-06 0.05)

Time = 0.73

smoothSolver:  Solving for Ux, Initial residual = 0.000139573, Final residual = 1.34132e-05, No Iterations 5
smoothSolver:  Solving for Uy, Initial residual = 0.00159589, Final residual = 3.33569e-05, No Iterations 1
GAMG:  Solving for p, Initial residual = 0.000117216, Final residual = 9.14109e-06, No Iterations 5
time step continuity errors : sum local = 3.4199e-08, global = -1.24905e-08, cumulative = 1.95973e-06
ExecutionTime = 23.71 s  ClockTime = 26 s

fieldMinMax minMax write:
    min(mag(U)) = 0 in cell 36960 at location (0.000485708 0 0.05)
    max(mag(U)) = 74.5876 in cell 95 at location (-0.000598615 9.3238e-06 0.05)

Time = 0.74

smoothSolver:  Solving for Ux, Initial residual = 0.00013687, Final residual = 1.31616e-05, No Iterations 5
smoothSolver:  Solving for Uy, Initial residual = 0.00160665, Final residual = 3.29004e-05, No Iterations 1
GAMG:  Solving for p, Initial residual = 0.00011084, Final residual = 7.36137e-06, No Iterations 6
time step continuity errors : sum local = 2.77295e-08, global = -7.05921e-09, cumulative = 1.95267e-06
ExecutionTime = 24.05 s  ClockTime = 26 s

fieldMinMax minMax write:
    min(mag(U)) = 0 in cell 36960 at location (0.000485708 0 0.05)
    max(mag(U)) = 74.5872 in cell 95 at location (-0.000598615 9.3238e-06 0.05)

Time = 0.75

smoothSolver:  Solving for Ux, Initial residual = 0.000134337, Final residual = 1.29166e-05, No Iterations 5
smoothSolver:  Solving for Uy, Initial residual = 0.00161293, Final residual = 3.24595e-05, No Iterations 1
GAMG:  Solving for p, Initial residual = 0.000105322, Final residual = 8.259e-06, No Iterations 5
time step continuity errors : sum local = 3.13508e-08, global = -1.18754e-08, cumulative = 1.94079e-06
ExecutionTime = 24.37 s  ClockTime = 27 s

fieldMinMax minMax write:
    min(mag(U)) = 0 in cell 36960 at location (0.000485708 0 0.05)
    max(mag(U)) = 74.5868 in cell 95 at location (-0.000598615 9.3238e-06 0.05)

Time = 0.76

smoothSolver:  Solving for Ux, Initial residual = 0.000131768, Final residual = 1.26779e-05, No Iterations 5
smoothSolver:  Solving for Uy, Initial residual = 0.00161351, Final residual = 3.20192e-05, No Iterations 1
GAMG:  Solving for p, Initial residual = 0.000102267, Final residual = 7.06639e-06, No Iterations 6
time step continuity errors : sum local = 2.69997e-08, global = -6.93364e-09, cumulative = 1.93386e-06
ExecutionTime = 24.71 s  ClockTime = 27 s

fieldMinMax minMax write:
    min(mag(U)) = 0 in cell 36960 at location (0.000485708 0 0.05)
    max(mag(U)) = 74.5864 in cell 95 at location (-0.000598615 9.3238e-06 0.05)

Time = 0.77

smoothSolver:  Solving for Ux, Initial residual = 0.000129369, Final residual = 1.24454e-05, No Iterations 5
smoothSolver:  Solving for Uy, Initial residual = 0.00161594, Final residual = 3.16006e-05, No Iterations 1
GAMG:  Solving for p, Initial residual = 9.72975e-05, Final residual = 7.8829e-06, No Iterations 5
time step continuity errors : sum local = 3.03485e-08, global = -1.22012e-08, cumulative = 1.92166e-06
ExecutionTime = 25.02 s  ClockTime = 27 s

fieldMinMax minMax write:
    min(mag(U)) = 0 in cell 36960 at location (0.000485708 0 0.05)
    max(mag(U)) = 74.586 in cell 95 at location (-0.000598615 9.3238e-06 0.05)

Time = 0.78

smoothSolver:  Solving for Ux, Initial residual = 0.000126937, Final residual = 1.22189e-05, No Iterations 5
smoothSolver:  Solving for Uy, Initial residual = 0.00161215, Final residual = 3.11816e-05, No Iterations 1
GAMG:  Solving for p, Initial residual = 9.463e-05, Final residual = 7.04021e-06, No Iterations 6
time step continuity errors : sum local = 2.72813e-08, global = -7.85876e-09, cumulative = 1.9138e-06
ExecutionTime = 25.36 s  ClockTime = 28 s

fieldMinMax minMax write:
    min(mag(U)) = 0 in cell 36960 at location (0.000485708 0 0.05)
    max(mag(U)) = 74.5856 in cell 95 at location (-0.000598615 9.3238e-06 0.05)

Time = 0.79

smoothSolver:  Solving for Ux, Initial residual = 0.000124627, Final residual = 1.1998e-05, No Iterations 5
smoothSolver:  Solving for Uy, Initial residual = 0.00160819, Final residual = 3.07786e-05, No Iterations 1
GAMG:  Solving for p, Initial residual = 9.10101e-05, Final residual = 6.77751e-06, No Iterations 5
time step continuity errors : sum local = 2.64516e-08, global = -1.11354e-08, cumulative = 1.90267e-06
ExecutionTime = 25.67 s  ClockTime = 28 s

fieldMinMax minMax write:
    min(mag(U)) = 0 in cell 36960 at location (0.000485708 0 0.05)
    max(mag(U)) = 74.5853 in cell 95 at location (-0.000598615 9.3238e-06 0.05)

Time = 0.8

smoothSolver:  Solving for Ux, Initial residual = 0.000122363, Final residual = 1.17827e-05, No Iterations 5
smoothSolver:  Solving for Uy, Initial residual = 0.00160248, Final residual = 3.03807e-05, No Iterations 1
GAMG:  Solving for p, Initial residual = 8.77502e-05, Final residual = 6.44888e-06, No Iterations 6
time step continuity errors : sum local = 2.53416e-08, global = -6.96533e-09, cumulative = 1.8957e-06
ExecutionTime = 25.98 s  ClockTime = 28 s

fieldMinMax minMax write:
    min(mag(U)) = 0 in cell 36960 at location (0.000485708 0 0.05)
    max(mag(U)) = 74.5849 in cell 95 at location (-0.000598615 9.3238e-06 0.05)

Time = 0.81

smoothSolver:  Solving for Ux, Initial residual = 0.00012014, Final residual = 1.15727e-05, No Iterations 5
smoothSolver:  Solving for Uy, Initial residual = 0.00159366, Final residual = 2.99936e-05, No Iterations 1
GAMG:  Solving for p, Initial residual = 8.57829e-05, Final residual = 7.1231e-06, No Iterations 5
time step continuity errors : sum local = 2.81815e-08, global = -1.18308e-08, cumulative = 1.88387e-06
ExecutionTime = 26.28 s  ClockTime = 29 s

fieldMinMax minMax write:
    min(mag(U)) = 0 in cell 36960 at location (0.000485708 0 0.05)
    max(mag(U)) = 74.5846 in cell 95 at location (-0.000598615 9.3238e-06 0.05)

Time = 0.82

smoothSolver:  Solving for Ux, Initial residual = 0.000117965, Final residual = 1.13678e-05, No Iterations 5
smoothSolver:  Solving for Uy, Initial residual = 0.00158342, Final residual = 2.96069e-05, No Iterations 1
GAMG:  Solving for p, Initial residual = 8.36717e-05, Final residual = 6.50889e-06, No Iterations 6
time step continuity errors : sum local = 2.59191e-08, global = -7.55083e-09, cumulative = 1.87632e-06
ExecutionTime = 26.61 s  ClockTime = 29 s

fieldMinMax minMax write:
    min(mag(U)) = 0 in cell 36960 at location (0.000485708 0 0.05)
    max(mag(U)) = 74.5843 in cell 95 at location (-0.000598615 9.3238e-06 0.05)

Time = 0.83

smoothSolver:  Solving for Ux, Initial residual = 0.000115871, Final residual = 1.11679e-05, No Iterations 5
smoothSolver:  Solving for Uy, Initial residual = 0.00157347, Final residual = 2.92347e-05, No Iterations 1
GAMG:  Solving for p, Initial residual = 8.11878e-05, Final residual = 6.016e-06, No Iterations 5
time step continuity errors : sum local = 2.41207e-08, global = -1.03429e-08, cumulative = 1.86598e-06
ExecutionTime = 26.91 s  ClockTime = 29 s

fieldMinMax minMax write:
    min(mag(U)) = 0 in cell 36960 at location (0.000485708 0 0.05)
    max(mag(U)) = 74.584 in cell 95 at location (-0.000598615 9.3238e-06 0.05)

Time = 0.84

smoothSolver:  Solving for Ux, Initial residual = 0.000113822, Final residual = 1.09728e-05, No Iterations 5
smoothSolver:  Solving for Uy, Initial residual = 0.0015621, Final residual = 2.88653e-05, No Iterations 1
GAMG:  Solving for p, Initial residual = 7.84844e-05, Final residual = 5.87288e-06, No Iterations 6
time step continuity errors : sum local = 2.37029e-08, global = -6.41061e-09, cumulative = 1.85956e-06
ExecutionTime = 27.23 s  ClockTime = 30 s

fieldMinMax minMax write:
    min(mag(U)) = 0 in cell 36960 at location (0.000485708 0 0.05)
    max(mag(U)) = 74.5837 in cell 95 at location (-0.000598615 9.3238e-06 0.05)

Time = 0.85

smoothSolver:  Solving for Ux, Initial residual = 0.000111803, Final residual = 1.07823e-05, No Iterations 5
smoothSolver:  Solving for Uy, Initial residual = 0.00154884, Final residual = 2.85054e-05, No Iterations 1
GAMG:  Solving for p, Initial residual = 7.71771e-05, Final residual = 6.86557e-06, No Iterations 5
time step continuity errors : sum local = 2.78903e-08, global = -1.1105e-08, cumulative = 1.84846e-06
ExecutionTime = 27.54 s  ClockTime = 30 s

fieldMinMax minMax write:
    min(mag(U)) = 0 in cell 36960 at location (0.000485708 0 0.05)
    max(mag(U)) = 74.5834 in cell 95 at location (-0.000598615 9.3238e-06 0.05)

Time = 0.86

smoothSolver:  Solving for Ux, Initial residual = 0.000109812, Final residual = 1.05963e-05, No Iterations 5
smoothSolver:  Solving for Uy, Initial residual = 0.00153336, Final residual = 2.81434e-05, No Iterations 1
GAMG:  Solving for p, Initial residual = 7.62105e-05, Final residual = 6.05663e-06, No Iterations 6
time step continuity errors : sum local = 2.47548e-08, global = -6.87562e-09, cumulative = 1.84158e-06
ExecutionTime = 27.86 s  ClockTime = 30 s

fieldMinMax minMax write:
    min(mag(U)) = 0 in cell 36960 at location (0.000485708 0 0.05)
    max(mag(U)) = 74.5831 in cell 95 at location (-0.000598615 9.3238e-06 0.05)

Time = 0.87

smoothSolver:  Solving for Ux, Initial residual = 0.000107944, Final residual = 1.04147e-05, No Iterations 5
smoothSolver:  Solving for Uy, Initial residual = 0.00152143, Final residual = 2.7798e-05, No Iterations 1
GAMG:  Solving for p, Initial residual = 7.34189e-05, Final residual = 5.95662e-06, No Iterations 5
time step continuity errors : sum local = 2.45142e-08, global = -1.08128e-08, cumulative = 1.83077e-06
ExecutionTime = 28.17 s  ClockTime = 31 s

fieldMinMax minMax write:
    min(mag(U)) = 0 in cell 36960 at location (0.000485708 0 0.05)
    max(mag(U)) = 74.5828 in cell 95 at location (-0.000598615 9.3238e-06 0.05)

Time = 0.88

smoothSolver:  Solving for Ux, Initial residual = 0.000106051, Final residual = 1.02372e-05, No Iterations 5
smoothSolver:  Solving for Uy, Initial residual = 0.00150524, Final residual = 2.74507e-05, No Iterations 1
GAMG:  Solving for p, Initial residual = 7.17991e-05, Final residual = 5.7042e-06, No Iterations 6
time step continuity errors : sum local = 2.36189e-08, global = -6.66838e-09, cumulative = 1.8241e-06
ExecutionTime = 28.51 s  ClockTime = 31 s

fieldMinMax minMax write:
    min(mag(U)) = 0 in cell 36960 at location (0.000485708 0 0.05)
    max(mag(U)) = 74.5825 in cell 95 at location (-0.000598615 9.3238e-06 0.05)

Time = 0.89

smoothSolver:  Solving for Ux, Initial residual = 0.000104232, Final residual = 1.00638e-05, No Iterations 5
smoothSolver:  Solving for Uy, Initial residual = 0.00149005, Final residual = 2.71141e-05, No Iterations 1
GAMG:  Solving for p, Initial residual = 7.02692e-05, Final residual = 5.95464e-06, No Iterations 5
time step continuity errors : sum local = 2.4815e-08, global = -1.0973e-08, cumulative = 1.81313e-06
ExecutionTime = 28.83 s  ClockTime = 31 s

fieldMinMax minMax write:
    min(mag(U)) = 0 in cell 36960 at location (0.000485708 0 0.05)
    max(mag(U)) = 74.5823 in cell 95 at location (-0.000598615 9.3238e-06 0.05)

Time = 0.9

smoothSolver:  Solving for Ux, Initial residual = 0.000102435, Final residual = 9.89434e-06, No Iterations 5
smoothSolver:  Solving for Uy, Initial residual = 0.00147291, Final residual = 2.6777e-05, No Iterations 1
GAMG:  Solving for p, Initial residual = 6.88723e-05, Final residual = 5.60529e-06, No Iterations 6
time step continuity errors : sum local = 2.35016e-08, global = -6.68176e-09, cumulative = 1.80645e-06
ExecutionTime = 29.16 s  ClockTime = 32 s

fieldMinMax minMax write:
    min(mag(U)) = 0 in cell 36960 at location (0.000485708 0 0.05)
    max(mag(U)) = 74.582 in cell 95 at location (-0.000598615 9.3238e-06 0.05)

Time = 0.91

smoothSolver:  Solving for Ux, Initial residual = 0.000100707, Final residual = 9.72865e-06, No Iterations 5
smoothSolver:  Solving for Uy, Initial residual = 0.00145753, Final residual = 2.64521e-05, No Iterations 1
GAMG:  Solving for p, Initial residual = 6.71651e-05, Final residual = 5.6183e-06, No Iterations 5
time step continuity errors : sum local = 2.37076e-08, global = -1.06404e-08, cumulative = 1.79581e-06
ExecutionTime = 29.47 s  ClockTime = 32 s

fieldMinMax minMax write:
    min(mag(U)) = 0 in cell 36960 at location (0.000485708 0 0.05)
    max(mag(U)) = 74.5818 in cell 95 at location (-0.000598615 9.3238e-06 0.05)

Time = 0.92

smoothSolver:  Solving for Ux, Initial residual = 9.89919e-05, Final residual = 9.56663e-06, No Iterations 5
smoothSolver:  Solving for Uy, Initial residual = 0.00143959, Final residual = 2.6126e-05, No Iterations 1
GAMG:  Solving for p, Initial residual = 6.56741e-05, Final residual = 5.42108e-06, No Iterations 6
time step continuity errors : sum local = 2.30133e-08, global = -6.53982e-09, cumulative = 1.78927e-06
ExecutionTime = 29.81 s  ClockTime = 32 s

fieldMinMax minMax write:
    min(mag(U)) = 0 in cell 36960 at location (0.000485708 0 0.05)
    max(mag(U)) = 74.5816 in cell 95 at location (-0.000598615 9.3238e-06 0.05)

Time = 0.93

smoothSolver:  Solving for Ux, Initial residual = 9.73359e-05, Final residual = 9.40818e-06, No Iterations 5
smoothSolver:  Solving for Uy, Initial residual = 0.00142316, Final residual = 2.58107e-05, No Iterations 1
GAMG:  Solving for p, Initial residual = 6.42761e-05, Final residual = 5.39787e-06, No Iterations 5
time step continuity errors : sum local = 2.30589e-08, global = -1.04477e-08, cumulative = 1.77882e-06
ExecutionTime = 30.13 s  ClockTime = 33 s

fieldMinMax minMax write:
    min(mag(U)) = 0 in cell 36960 at location (0.000485708 0 0.05)
    max(mag(U)) = 74.5813 in cell 95 at location (-0.000598615 9.3238e-06 0.05)

Time = 0.94

smoothSolver:  Solving for Ux, Initial residual = 9.56987e-05, Final residual = 9.25317e-06, No Iterations 5
smoothSolver:  Solving for Uy, Initial residual = 0.00140454, Final residual = 2.54944e-05, No Iterations 1
GAMG:  Solving for p, Initial residual = 6.28312e-05, Final residual = 5.29036e-06, No Iterations 6
time step continuity errors : sum local = 2.27343e-08, global = -6.47351e-09, cumulative = 1.77235e-06
ExecutionTime = 30.46 s  ClockTime = 33 s

fieldMinMax minMax write:
    min(mag(U)) = 0 in cell 36960 at location (0.000485708 0 0.05)
    max(mag(U)) = 74.5811 in cell 95 at location (-0.000598615 9.3238e-06 0.05)

Time = 0.95

smoothSolver:  Solving for Ux, Initial residual = 9.41152e-05, Final residual = 9.1015e-06, No Iterations 5
smoothSolver:  Solving for Uy, Initial residual = 0.00138728, Final residual = 2.51888e-05, No Iterations 1
GAMG:  Solving for p, Initial residual = 6.16375e-05, Final residual = 5.25482e-06, No Iterations 5
time step continuity errors : sum local = 2.27216e-08, global = -1.03317e-08, cumulative = 1.76201e-06
ExecutionTime = 30.76 s  ClockTime = 33 s

fieldMinMax minMax write:
    min(mag(U)) = 0 in cell 36960 at location (0.000485708 0 0.05)
    max(mag(U)) = 74.5809 in cell 95 at location (-0.000598615 9.3238e-06 0.05)

Time = 0.96

smoothSolver:  Solving for Ux, Initial residual = 9.25506e-05, Final residual = 8.95308e-06, No Iterations 5
smoothSolver:  Solving for Uy, Initial residual = 0.00136794, Final residual = 2.48824e-05, No Iterations 1
GAMG:  Solving for p, Initial residual = 6.02799e-05, Final residual = 5.20277e-06, No Iterations 6
time step continuity errors : sum local = 2.26292e-08, global = -6.49184e-09, cumulative = 1.75552e-06
ExecutionTime = 31.08 s  ClockTime = 34 s

fieldMinMax minMax write:
    min(mag(U)) = 0 in cell 36960 at location (0.000485708 0 0.05)
    max(mag(U)) = 74.5807 in cell 95 at location (-0.000598615 9.3238e-06 0.05)

Time = 0.97

smoothSolver:  Solving for Ux, Initial residual = 9.10343e-05, Final residual = 8.8078e-06, No Iterations 5
smoothSolver:  Solving for Uy, Initial residual = 0.00134989, Final residual = 2.45859e-05, No Iterations 1
GAMG:  Solving for p, Initial residual = 5.92041e-05, Final residual = 5.00392e-06, No Iterations 5
time step continuity errors : sum local = 2.18972e-08, global = -1.00532e-08, cumulative = 1.74547e-06
ExecutionTime = 31.39 s  ClockTime = 34 s

fieldMinMax minMax write:
    min(mag(U)) = 0 in cell 36960 at location (0.000485708 0 0.05)
    max(mag(U)) = 74.5805 in cell 95 at location (-0.000598615 9.3238e-06 0.05)

Time = 0.98

smoothSolver:  Solving for Ux, Initial residual = 8.95428e-05, Final residual = 8.66557e-06, No Iterations 5
smoothSolver:  Solving for Uy, Initial residual = 0.00133038, Final residual = 2.42896e-05, No Iterations 1
GAMG:  Solving for p, Initial residual = 5.77594e-05, Final residual = 5.06769e-06, No Iterations 6
time step continuity errors : sum local = 2.23068e-08, global = -6.29826e-09, cumulative = 1.73917e-06
ExecutionTime = 31.71 s  ClockTime = 34 s

fieldMinMax minMax write:
    min(mag(U)) = 0 in cell 36960 at location (0.000485708 0 0.05)
    max(mag(U)) = 74.5803 in cell 95 at location (-0.000598615 9.3238e-06 0.05)

Time = 0.99

smoothSolver:  Solving for Ux, Initial residual = 8.80856e-05, Final residual = 8.5263e-06, No Iterations 5
smoothSolver:  Solving for Uy, Initial residual = 0.0013117, Final residual = 2.40018e-05, No Iterations 1
GAMG:  Solving for p, Initial residual = 5.6907e-05, Final residual = 5.01514e-06, No Iterations 5
time step continuity errors : sum local = 2.22075e-08, global = -1.01353e-08, cumulative = 1.72904e-06
ExecutionTime = 32.02 s  ClockTime = 35 s

fieldMinMax minMax write:
    min(mag(U)) = 0 in cell 36960 at location (0.000485708 0 0.05)
    max(mag(U)) = 74.5802 in cell 95 at location (-0.000598615 9.3238e-06 0.05)

Time = 1

smoothSolver:  Solving for Ux, Initial residual = 8.66539e-05, Final residual = 8.3899e-06, No Iterations 5
smoothSolver:  Solving for Uy, Initial residual = 0.0012918, Final residual = 2.37139e-05, No Iterations 1
GAMG:  Solving for p, Initial residual = 5.56799e-05, Final residual = 5.05431e-06, No Iterations 6
time step continuity errors : sum local = 2.25105e-08, global = -6.41316e-09, cumulative = 1.72262e-06
ExecutionTime = 32.73 s  ClockTime = 36 s

fieldMinMax minMax write:
    min(mag(U)) = 0 in cell 36960 at location (0.000485708 0 0.05)
    max(mag(U)) = 74.58 in cell 95 at location (-0.000598615 9.3238e-06 0.05)

yPlus yPlus write:
    writing field yPlus
    patch topWall y+ : min = 0.0415852, max = 0.364416, average = 0.308739
    patch bottomWall y+ : min = 0.714933, max = 4.58213, average = 0.919839
writeCellCentres writeCellCentres write:
    writing cell-volumes field C to 1
    Writing the x component field of the cell-centres Cx to 1
    Writing the y component field of the cell-centres Cy to 1
    Writing the z component field of the cell-centres Cz to 1
wallShearStress wallShearStress write:
    writing field wallShearStress
    min/max(topWall) = (-2.33361e-09 -6.52267e-07 0), (8.13248e-09 -8.90633e-09 0)
    min/max(bottomWall) = (-46.5261 -0.879973 0), (-1.13272 2.93652e-08 0)
Time = 1.01

smoothSolver:  Solving for Ux, Initial residual = 8.52631e-05, Final residual = 8.2563e-06, No Iterations 5
smoothSolver:  Solving for Uy, Initial residual = 0.00127324, Final residual = 2.34351e-05, No Iterations 1
GAMG:  Solving for p, Initial residual = 5.48075e-05, Final residual = 4.58715e-06, No Iterations 5
time step continuity errors : sum local = 2.05515e-08, global = -9.54074e-09, cumulative = 1.71308e-06
ExecutionTime = 33.44 s  ClockTime = 37 s

fieldMinMax minMax write:
    min(mag(U)) = 0 in cell 36960 at location (0.000485708 0 0.05)
    max(mag(U)) = 74.5798 in cell 95 at location (-0.000598615 9.3238e-06 0.05)

Time = 1.02

smoothSolver:  Solving for Ux, Initial residual = 8.39042e-05, Final residual = 8.1254e-06, No Iterations 5
smoothSolver:  Solving for Uy, Initial residual = 0.00125414, Final residual = 2.31582e-05, No Iterations 1
GAMG:  Solving for p, Initial residual = 5.33282e-05, Final residual = 4.80263e-06, No Iterations 6
time step continuity errors : sum local = 2.16428e-08, global = -6.03327e-09, cumulative = 1.70705e-06
ExecutionTime = 33.79 s  ClockTime = 37 s

fieldMinMax minMax write:
    min(mag(U)) = 0 in cell 36960 at location (0.000485708 0 0.05)
    max(mag(U)) = 74.5796 in cell 95 at location (-0.000598615 9.3238e-06 0.05)

Time = 1.03

smoothSolver:  Solving for Ux, Initial residual = 8.25526e-05, Final residual = 7.99714e-06, No Iterations 5
smoothSolver:  Solving for Uy, Initial residual = 0.00123487, Final residual = 2.28862e-05, No Iterations 1
GAMG:  Solving for p, Initial residual = 5.28357e-05, Final residual = 4.80601e-06, No Iterations 5
time step continuity errors : sum local = 2.1782e-08, global = -9.93352e-09, cumulative = 1.69712e-06
ExecutionTime = 34.17 s  ClockTime = 38 s

fieldMinMax minMax write:
    min(mag(U)) = 0 in cell 36960 at location (0.000485708 0 0.05)
    max(mag(U)) = 74.5795 in cell 95 at location (-0.000598615 9.3238e-06 0.05)

Time = 1.04

smoothSolver:  Solving for Ux, Initial residual = 8.12396e-05, Final residual = 7.87145e-06, No Iterations 5
smoothSolver:  Solving for Uy, Initial residual = 0.00121531, Final residual = 2.26153e-05, No Iterations 1
GAMG:  Solving for p, Initial residual = 5.17609e-05, Final residual = 4.91185e-06, No Iterations 6
time step continuity errors : sum local = 2.23881e-08, global = -6.38603e-09, cumulative = 1.69073e-06
ExecutionTime = 34.5 s  ClockTime = 38 s

fieldMinMax minMax write:
    min(mag(U)) = 0 in cell 36960 at location (0.000485708 0 0.05)
    max(mag(U)) = 74.5793 in cell 95 at location (-0.000598615 9.3238e-06 0.05)

Time = 1.05

smoothSolver:  Solving for Ux, Initial residual = 7.99613e-05, Final residual = 7.74825e-06, No Iterations 5
smoothSolver:  Solving for Uy, Initial residual = 0.00119723, Final residual = 2.23534e-05, No Iterations 1
GAMG:  Solving for p, Initial residual = 5.09909e-05, Final residual = 4.22434e-06, No Iterations 5
time step continuity errors : sum local = 1.93665e-08, global = -8.96734e-09, cumulative = 1.68176e-06
ExecutionTime = 34.81 s  ClockTime = 38 s

fieldMinMax minMax write:
    min(mag(U)) = 0 in cell 36960 at location (0.000485708 0 0.05)
    max(mag(U)) = 74.5792 in cell 95 at location (-0.000598615 9.3238e-06 0.05)

Time = 1.06

smoothSolver:  Solving for Ux, Initial residual = 7.87219e-05, Final residual = 7.62746e-06, No Iterations 5
smoothSolver:  Solving for Uy, Initial residual = 0.00117936, Final residual = 2.20947e-05, No Iterations 1
GAMG:  Solving for p, Initial residual = 4.94657e-05, Final residual = 4.57722e-06, No Iterations 6
time step continuity errors : sum local = 2.11063e-08, global = -5.77359e-09, cumulative = 1.67599e-06
ExecutionTime = 35.14 s  ClockTime = 39 s

fieldMinMax minMax write:
    min(mag(U)) = 0 in cell 36960 at location (0.000485708 0 0.05)
    max(mag(U)) = 74.579 in cell 95 at location (-0.000598615 9.3238e-06 0.05)

Time = 1.07

smoothSolver:  Solving for Ux, Initial residual = 7.74637e-05, Final residual = 7.50905e-06, No Iterations 5
smoothSolver:  Solving for Uy, Initial residual = 0.00116013, Final residual = 2.18371e-05, No Iterations 1
GAMG:  Solving for p, Initial residual = 4.92122e-05, Final residual = 4.65691e-06, No Iterations 5
time step continuity errors : sum local = 2.15913e-08, global = -9.71721e-09, cumulative = 1.66627e-06
ExecutionTime = 35.46 s  ClockTime = 39 s

fieldMinMax minMax write:
    min(mag(U)) = 0 in cell 36960 at location (0.000485708 0 0.05)
    max(mag(U)) = 74.5789 in cell 95 at location (-0.000598615 9.3238e-06 0.05)

Time = 1.08

smoothSolver:  Solving for Ux, Initial residual = 7.62563e-05, Final residual = 7.39293e-06, No Iterations 5
smoothSolver:  Solving for Uy, Initial residual = 0.00114157, Final residual = 2.15822e-05, No Iterations 1
GAMG:  Solving for p, Initial residual = 4.83228e-05, Final residual = 4.81691e-06, No Iterations 6
time step continuity errors : sum local = 2.24575e-08, global = -6.58668e-09, cumulative = 1.65968e-06
ExecutionTime = 35.85 s  ClockTime = 39 s

fieldMinMax minMax write:
    min(mag(U)) = 0 in cell 36960 at location (0.000485708 0 0.05)
    max(mag(U)) = 74.5787 in cell 95 at location (-0.000598615 9.3238e-06 0.05)

Time = 1.09

smoothSolver:  Solving for Ux, Initial residual = 7.50764e-05, Final residual = 7.27904e-06, No Iterations 5
smoothSolver:  Solving for Uy, Initial residual = 0.00112444, Final residual = 2.13354e-05, No Iterations 1
GAMG:  Solving for p, Initial residual = 4.7603e-05, Final residual = 3.27473e-06, No Iterations 6
time step continuity errors : sum local = 1.5354e-08, global = -2.9491e-09, cumulative = 1.65674e-06
ExecutionTime = 36.17 s  ClockTime = 40 s

fieldMinMax minMax write:
    min(mag(U)) = 0 in cell 36960 at location (0.000485708 0 0.05)
    max(mag(U)) = 74.5786 in cell 95 at location (-0.000598615 9.3238e-06 0.05)

Time = 1.1

smoothSolver:  Solving for Ux, Initial residual = 7.39897e-05, Final residual = 7.16732e-06, No Iterations 5
smoothSolver:  Solving for Uy, Initial residual = 0.0011113, Final residual = 2.11039e-05, No Iterations 1
GAMG:  Solving for p, Initial residual = 4.5843e-05, Final residual = 4.28144e-06, No Iterations 5
time step continuity errors : sum local = 2.01995e-08, global = -8.34474e-09, cumulative = 1.64839e-06
ExecutionTime = 36.48 s  ClockTime = 40 s

fieldMinMax minMax write:
    min(mag(U)) = 0 in cell 36960 at location (0.000485708 0 0.05)
    max(mag(U)) = 74.5785 in cell 95 at location (-0.000598615 9.3238e-06 0.05)

Time = 1.11

smoothSolver:  Solving for Ux, Initial residual = 7.27207e-05, Final residual = 7.05775e-06, No Iterations 5
smoothSolver:  Solving for Uy, Initial residual = 0.00108715, Final residual = 2.08414e-05, No Iterations 1
GAMG:  Solving for p, Initial residual = 4.62607e-05, Final residual = 3.59693e-06, No Iterations 8
time step continuity errors : sum local = 1.70428e-08, global = -3.96334e-09, cumulative = 1.64443e-06
ExecutionTime = 36.85 s  ClockTime = 40 s

fieldMinMax minMax write:
    min(mag(U)) = 0 in cell 36960 at location (0.000485708 0 0.05)
    max(mag(U)) = 74.5783 in cell 95 at location (-0.000598615 9.3238e-06 0.05)

Time = 1.12

smoothSolver:  Solving for Ux, Initial residual = 7.17045e-05, Final residual = 6.95022e-06, No Iterations 5
smoothSolver:  Solving for Uy, Initial residual = 0.00107524, Final residual = 2.06171e-05, No Iterations 1
GAMG:  Solving for p, Initial residual = 4.43577e-05, Final residual = 4.38805e-06, No Iterations 5
time step continuity errors : sum local = 2.09244e-08, global = -8.30179e-09, cumulative = 1.63613e-06
ExecutionTime = 37.16 s  ClockTime = 41 s

fieldMinMax minMax write:
    min(mag(U)) = 0 in cell 36960 at location (0.000485708 0 0.05)
    max(mag(U)) = 74.5782 in cell 95 at location (-0.000598615 9.3238e-06 0.05)

Time = 1.13

smoothSolver:  Solving for Ux, Initial residual = 7.05347e-05, Final residual = 6.84473e-06, No Iterations 5
smoothSolver:  Solving for Uy, Initial residual = 0.0010548, Final residual = 2.0372e-05, No Iterations 1
GAMG:  Solving for p, Initial residual = 4.47244e-05, Final residual = 3.45875e-06, No Iterations 8
time step continuity errors : sum local = 1.65709e-08, global = -3.76628e-09, cumulative = 1.63236e-06
ExecutionTime = 37.56 s  ClockTime = 41 s

fieldMinMax minMax write:
    min(mag(U)) = 0 in cell 36960 at location (0.000485708 0 0.05)
    max(mag(U)) = 74.5781 in cell 95 at location (-0.000598615 9.3238e-06 0.05)

Time = 1.14

smoothSolver:  Solving for Ux, Initial residual = 6.95435e-05, Final residual = 6.74117e-06, No Iterations 5
smoothSolver:  Solving for Uy, Initial residual = 0.0010436, Final residual = 2.01549e-05, No Iterations 1
GAMG:  Solving for p, Initial residual = 4.28611e-05, Final residual = 3.05515e-06, No Iterations 7
time step continuity errors : sum local = 1.47279e-08, global = -3.9467e-09, cumulative = 1.62841e-06
ExecutionTime = 37.95 s  ClockTime = 41 s

fieldMinMax minMax write:
    min(mag(U)) = 0 in cell 36960 at location (0.000485708 0 0.05)
    max(mag(U)) = 74.578 in cell 95 at location (-0.000598615 9.3238e-06 0.05)

Time = 1.15

smoothSolver:  Solving for Ux, Initial residual = 6.84484e-05, Final residual = 6.63956e-06, No Iterations 5
smoothSolver:  Solving for Uy, Initial residual = 0.00102581, Final residual = 1.99224e-05, No Iterations 1
GAMG:  Solving for p, Initial residual = 4.22008e-05, Final residual = 3.26615e-06, No Iterations 6
time step continuity errors : sum local = 1.58237e-08, global = -3.15449e-09, cumulative = 1.62526e-06
ExecutionTime = 38.29 s  ClockTime = 42 s

fieldMinMax minMax write:
    min(mag(U)) = 0 in cell 36960 at location (0.000485708 0 0.05)
    max(mag(U)) = 74.5779 in cell 95 at location (-0.000598615 9.3238e-06 0.05)

Time = 1.16

smoothSolver:  Solving for Ux, Initial residual = 6.74291e-05, Final residual = 6.5398e-06, No Iterations 5
smoothSolver:  Solving for Uy, Initial residual = 0.00101057, Final residual = 1.96987e-05, No Iterations 1
GAMG:  Solving for p, Initial residual = 4.16348e-05, Final residual = 3.94145e-06, No Iterations 5
time step continuity errors : sum local = 1.91994e-08, global = -8.51532e-09, cumulative = 1.61674e-06
ExecutionTime = 38.62 s  ClockTime = 42 s

fieldMinMax minMax write:
    min(mag(U)) = 0 in cell 36960 at location (0.000485708 0 0.05)
    max(mag(U)) = 74.5778 in cell 95 at location (-0.000598615 9.3238e-06 0.05)

Time = 1.17

smoothSolver:  Solving for Ux, Initial residual = 6.63562e-05, Final residual = 6.44189e-06, No Iterations 5
smoothSolver:  Solving for Uy, Initial residual = 0.000992601, Final residual = 1.94674e-05, No Iterations 1
GAMG:  Solving for p, Initial residual = 4.15897e-05, Final residual = 3.73784e-06, No Iterations 8
time step continuity errors : sum local = 1.82934e-08, global = -4.1823e-09, cumulative = 1.61256e-06
ExecutionTime = 39.02 s  ClockTime = 42 s

fieldMinMax minMax write:
    min(mag(U)) = 0 in cell 36960 at location (0.000485708 0 0.05)
    max(mag(U)) = 74.5777 in cell 95 at location (-0.000598615 9.3238e-06 0.05)

Time = 1.18

smoothSolver:  Solving for Ux, Initial residual = 6.5427e-05, Final residual = 6.34573e-06, No Iterations 5
smoothSolver:  Solving for Uy, Initial residual = 0.000982171, Final residual = 1.9262e-05, No Iterations 1
GAMG:  Solving for p, Initial residual = 4.05874e-05, Final residual = 3.11144e-06, No Iterations 7
time step continuity errors : sum local = 1.53175e-08, global = -3.85505e-09, cumulative = 1.60871e-06
ExecutionTime = 39.39 s  ClockTime = 43 s

fieldMinMax minMax write:
    min(mag(U)) = 0 in cell 36960 at location (0.000485708 0 0.05)
    max(mag(U)) = 74.5776 in cell 95 at location (-0.000598615 9.3238e-06 0.05)

Time = 1.19

smoothSolver:  Solving for Ux, Initial residual = 6.44411e-05, Final residual = 6.25132e-06, No Iterations 5
smoothSolver:  Solving for Uy, Initial residual = 0.000967833, Final residual = 1.90477e-05, No Iterations 1
GAMG:  Solving for p, Initial residual = 3.96544e-05, Final residual = 3.2614e-06, No Iterations 6
time step continuity errors : sum local = 1.61382e-08, global = -3.26098e-09, cumulative = 1.60544e-06
ExecutionTime = 39.73 s  ClockTime = 43 s

fieldMinMax minMax write:
    min(mag(U)) = 0 in cell 36960 at location (0.000485708 0 0.05)
[...]
time step continuity errors : sum local = 2.67911e-14, global = 3.83522e-18, cumulative = 1.52706e-06
ExecutionTime = 1520.26 s  ClockTime = 1694 s

fieldMinMax minMax write:
    min(mag(U)) = 0 in cell 36960 at location (0.000485708 0 0.05)
    max(mag(U)) = 74.5736 in cell 95 at location (-0.000598615 9.3238e-06 0.05)

Time = 59.72

smoothSolver:  Solving for Ux, Initial residual = 6.62621e-11, Final residual = 6.62621e-11, No Iterations 0
smoothSolver:  Solving for Uy, Initial residual = 2.19692e-10, Final residual = 2.34963e-12, No Iterations 1
GAMG:  Solving for p, Initial residual = 8.15922e-09, Final residual = 3.46714e-12, No Iterations 1
time step continuity errors : sum local = 4.00713e-14, global = 2.77027e-16, cumulative = 1.52706e-06
ExecutionTime = 1520.53 s  ClockTime = 1694 s

fieldMinMax minMax write:
    min(mag(U)) = 0 in cell 36960 at location (0.000485708 0 0.05)
    max(mag(U)) = 74.5736 in cell 95 at location (-0.000598615 9.3238e-06 0.05)

Time = 59.73

smoothSolver:  Solving for Ux, Initial residual = 9.3712e-11, Final residual = 9.3712e-11, No Iterations 0
smoothSolver:  Solving for Uy, Initial residual = 2.5888e-10, Final residual = 2.63108e-12, No Iterations 1
GAMG:  Solving for p, Initial residual = 1.16587e-08, Final residual = 4.87557e-12, No Iterations 1
time step continuity errors : sum local = 5.18495e-14, global = 7.1293e-16, cumulative = 1.52706e-06
ExecutionTime = 1520.77 s  ClockTime = 1694 s

fieldMinMax minMax write:
    min(mag(U)) = 0 in cell 36960 at location (0.000485708 0 0.05)
    max(mag(U)) = 74.5736 in cell 95 at location (-0.000598615 9.3238e-06 0.05)

Time = 59.74

smoothSolver:  Solving for Ux, Initial residual = 1.29263e-10, Final residual = 1.47054e-12, No Iterations 1
smoothSolver:  Solving for Uy, Initial residual = 3.36224e-10, Final residual = 3.59823e-12, No Iterations 1
GAMG:  Solving for p, Initial residual = 3.15445e-09, Final residual = 2.17975e-12, No Iterations 1
time step continuity errors : sum local = 2.91113e-14, global = 2.24056e-16, cumulative = 1.52706e-06
ExecutionTime = 1521.02 s  ClockTime = 1695 s

fieldMinMax minMax write:
    min(mag(U)) = 0 in cell 36960 at location (0.000485708 0 0.05)
    max(mag(U)) = 74.5736 in cell 95 at location (-0.000598615 9.3238e-06 0.05)

Time = 59.75

smoothSolver:  Solving for Ux, Initial residual = 6.78336e-11, Final residual = 6.78336e-11, No Iterations 0
smoothSolver:  Solving for Uy, Initial residual = 2.24e-10, Final residual = 2.43877e-12, No Iterations 1
GAMG:  Solving for p, Initial residual = 8.348e-09, Final residual = 3.41377e-12, No Iterations 1
time step continuity errors : sum local = 3.96483e-14, global = -2.61711e-16, cumulative = 1.52706e-06
ExecutionTime = 1521.27 s  ClockTime = 1695 s

fieldMinMax minMax write:
    min(mag(U)) = 0 in cell 36960 at location (0.000485708 0 0.05)
    max(mag(U)) = 74.5736 in cell 95 at location (-0.000598615 9.3238e-06 0.05)

Time = 59.76

smoothSolver:  Solving for Ux, Initial residual = 9.18748e-11, Final residual = 9.18748e-11, No Iterations 0
smoothSolver:  Solving for Uy, Initial residual = 2.50519e-10, Final residual = 2.82655e-12, No Iterations 1
GAMG:  Solving for p, Initial residual = 1.21106e-08, Final residual = 4.89145e-12, No Iterations 1
time step continuity errors : sum local = 5.19123e-14, global = -5.71675e-16, cumulative = 1.52706e-06
ExecutionTime = 1521.51 s  ClockTime = 1695 s

fieldMinMax minMax write:
    min(mag(U)) = 0 in cell 36960 at location (0.000485708 0 0.05)
    max(mag(U)) = 74.5736 in cell 95 at location (-0.000598615 9.3238e-06 0.05)

Time = 59.77

smoothSolver:  Solving for Ux, Initial residual = 1.32675e-10, Final residual = 1.49752e-12, No Iterations 1
smoothSolver:  Solving for Uy, Initial residual = 3.43538e-10, Final residual = 3.61492e-12, No Iterations 1
GAMG:  Solving for p, Initial residual = 3.11574e-09, Final residual = 2.1694e-12, No Iterations 1
time step continuity errors : sum local = 2.89864e-14, global = -9.87148e-17, cumulative = 1.52706e-06
ExecutionTime = 1521.77 s  ClockTime = 1696 s

fieldMinMax minMax write:
    min(mag(U)) = 0 in cell 36960 at location (0.000485708 0 0.05)
    max(mag(U)) = 74.5736 in cell 95 at location (-0.000598615 9.3238e-06 0.05)

Time = 59.78

smoothSolver:  Solving for Ux, Initial residual = 7.03007e-11, Final residual = 7.03007e-11, No Iterations 0
smoothSolver:  Solving for Uy, Initial residual = 2.32664e-10, Final residual = 2.37552e-12, No Iterations 1
GAMG:  Solving for p, Initial residual = 8.40203e-09, Final residual = 3.54384e-12, No Iterations 1
time step continuity errors : sum local = 4.07108e-14, global = 4.54329e-16, cumulative = 1.52706e-06
ExecutionTime = 1522.01 s  ClockTime = 1696 s

fieldMinMax minMax write:
    min(mag(U)) = 0 in cell 36960 at location (0.000485708 0 0.05)
    max(mag(U)) = 74.5736 in cell 95 at location (-0.000598615 9.3238e-06 0.05)

Time = 59.79

smoothSolver:  Solving for Ux, Initial residual = 9.69094e-11, Final residual = 9.69094e-11, No Iterations 0
smoothSolver:  Solving for Uy, Initial residual = 2.66736e-10, Final residual = 2.80565e-12, No Iterations 1
GAMG:  Solving for p, Initial residual = 1.21424e-08, Final residual = 5.09152e-12, No Iterations 1
time step continuity errors : sum local = 5.36871e-14, global = 4.67036e-16, cumulative = 1.52706e-06
ExecutionTime = 1522.25 s  ClockTime = 1696 s

fieldMinMax minMax write:
    min(mag(U)) = 0 in cell 36960 at location (0.000485708 0 0.05)
    max(mag(U)) = 74.5736 in cell 95 at location (-0.000598615 9.3238e-06 0.05)

Time = 59.8

smoothSolver:  Solving for Ux, Initial residual = 1.32346e-10, Final residual = 1.56823e-12, No Iterations 1
smoothSolver:  Solving for Uy, Initial residual = 3.40178e-10, Final residual = 3.81776e-12, No Iterations 1
GAMG:  Solving for p, Initial residual = 3.18158e-09, Final residual = 1.92895e-12, No Iterations 1
time step continuity errors : sum local = 2.70853e-14, global = 1.76301e-16, cumulative = 1.52706e-06
ExecutionTime = 1522.5 s  ClockTime = 1696 s

fieldMinMax minMax write:
    min(mag(U)) = 0 in cell 36960 at location (0.000485708 0 0.05)
    max(mag(U)) = 74.5736 in cell 95 at location (-0.000598615 9.3238e-06 0.05)

Time = 59.81

smoothSolver:  Solving for Ux, Initial residual = 6.86067e-11, Final residual = 6.86067e-11, No Iterations 0
smoothSolver:  Solving for Uy, Initial residual = 2.2542e-10, Final residual = 2.54668e-12, No Iterations 1
GAMG:  Solving for p, Initial residual = 8.72487e-09, Final residual = 3.36289e-12, No Iterations 1
time step continuity errors : sum local = 3.92325e-14, global = -2.01578e-16, cumulative = 1.52706e-06
ExecutionTime = 1522.77 s  ClockTime = 1697 s

fieldMinMax minMax write:
    min(mag(U)) = 0 in cell 36960 at location (0.000485708 0 0.05)
    max(mag(U)) = 74.5736 in cell 95 at location (-0.000598615 9.3238e-06 0.05)

Time = 59.82

smoothSolver:  Solving for Ux, Initial residual = 9.86699e-11, Final residual = 9.86699e-11, No Iterations 0
smoothSolver:  Solving for Uy, Initial residual = 2.67756e-10, Final residual = 2.88305e-12, No Iterations 1
GAMG:  Solving for p, Initial residual = 1.26214e-08, Final residual = 5.05778e-12, No Iterations 1
time step continuity errors : sum local = 5.35228e-14, global = 9.12428e-17, cumulative = 1.52706e-06
ExecutionTime = 1523.02 s  ClockTime = 1697 s

fieldMinMax minMax write:
    min(mag(U)) = 0 in cell 36960 at location (0.000485708 0 0.05)
    max(mag(U)) = 74.5736 in cell 95 at location (-0.000598615 9.3238e-06 0.05)

Time = 59.83

smoothSolver:  Solving for Ux, Initial residual = 1.39067e-10, Final residual = 1.51438e-12, No Iterations 1
smoothSolver:  Solving for Uy, Initial residual = 3.59325e-10, Final residual = 3.67245e-12, No Iterations 1
GAMG:  Solving for p, Initial residual = 3.33906e-09, Final residual = 1.8493e-12, No Iterations 1
time step continuity errors : sum local = 2.65015e-14, global = -1.6545e-17, cumulative = 1.52706e-06
ExecutionTime = 1523.27 s  ClockTime = 1697 s

fieldMinMax minMax write:
    min(mag(U)) = 0 in cell 36960 at location (0.000485708 0 0.05)
    max(mag(U)) = 74.5736 in cell 95 at location (-0.000598615 9.3238e-06 0.05)

Time = 59.84

smoothSolver:  Solving for Ux, Initial residual = 7.29131e-11, Final residual = 7.29131e-11, No Iterations 0
smoothSolver:  Solving for Uy, Initial residual = 2.40684e-10, Final residual = 2.49689e-12, No Iterations 1
GAMG:  Solving for p, Initial residual = 8.58955e-09, Final residual = 3.52388e-12, No Iterations 1
time step continuity errors : sum local = 4.05787e-14, global = 1.47838e-16, cumulative = 1.52706e-06
ExecutionTime = 1523.51 s  ClockTime = 1697 s

fieldMinMax minMax write:
    min(mag(U)) = 0 in cell 36960 at location (0.000485708 0 0.05)
    max(mag(U)) = 74.5736 in cell 95 at location (-0.000598615 9.3238e-06 0.05)

Time = 59.85

smoothSolver:  Solving for Ux, Initial residual = 9.95965e-11, Final residual = 9.95965e-11, No Iterations 0
smoothSolver:  Solving for Uy, Initial residual = 2.71031e-10, Final residual = 3.00606e-12, No Iterations 1
GAMG:  Solving for p, Initial residual = 1.29623e-08, Final residual = 4.74418e-12, No Iterations 1
time step continuity errors : sum local = 5.08342e-14, global = -4.54986e-16, cumulative = 1.52706e-06
ExecutionTime = 1523.78 s  ClockTime = 1698 s

fieldMinMax minMax write:
    min(mag(U)) = 0 in cell 36960 at location (0.000485708 0 0.05)
    max(mag(U)) = 74.5736 in cell 95 at location (-0.000598615 9.3238e-06 0.05)

Time = 59.86

smoothSolver:  Solving for Ux, Initial residual = 1.35915e-10, Final residual = 1.6333e-12, No Iterations 1
smoothSolver:  Solving for Uy, Initial residual = 3.48835e-10, Final residual = 3.94097e-12, No Iterations 1
GAMG:  Solving for p, Initial residual = 3.29588e-09, Final residual = 1.98332e-12, No Iterations 1
time step continuity errors : sum local = 2.7497e-14, global = -4.03096e-17, cumulative = 1.52706e-06
ExecutionTime = 1524.05 s  ClockTime = 1698 s

fieldMinMax minMax write:
    min(mag(U)) = 0 in cell 36960 at location (0.000485708 0 0.05)
    max(mag(U)) = 74.5736 in cell 95 at location (-0.000598615 9.3238e-06 0.05)

Time = 59.87

smoothSolver:  Solving for Ux, Initial residual = 7.32188e-11, Final residual = 7.32188e-11, No Iterations 0
smoothSolver:  Solving for Uy, Initial residual = 2.39278e-10, Final residual = 2.60868e-12, No Iterations 1
GAMG:  Solving for p, Initial residual = 9.07364e-09, Final residual = 3.64396e-12, No Iterations 1
time step continuity errors : sum local = 4.14479e-14, global = 2.62779e-16, cumulative = 1.52706e-06
ExecutionTime = 1524.3 s  ClockTime = 1698 s

fieldMinMax minMax write:
    min(mag(U)) = 0 in cell 36960 at location (0.000485708 0 0.05)
    max(mag(U)) = 74.5736 in cell 95 at location (-0.000598615 9.3238e-06 0.05)

Time = 59.88

smoothSolver:  Solving for Ux, Initial residual = 1.04303e-10, Final residual = 1.14099e-12, No Iterations 1
smoothSolver:  Solving for Uy, Initial residual = 2.83031e-10, Final residual = 2.90622e-12, No Iterations 1
GAMG:  Solving for p, Initial residual = 2.58372e-09, Final residual = 1.48619e-12, No Iterations 1
time step continuity errors : sum local = 2.35016e-14, global = 9.85074e-17, cumulative = 1.52706e-06
ExecutionTime = 1524.55 s  ClockTime = 1699 s

fieldMinMax minMax write:
    min(mag(U)) = 0 in cell 36960 at location (0.000485708 0 0.05)
    max(mag(U)) = 74.5736 in cell 95 at location (-0.000598615 9.3238e-06 0.05)

Time = 59.89

smoothSolver:  Solving for Ux, Initial residual = 5.48187e-11, Final residual = 5.48187e-11, No Iterations 0
smoothSolver:  Solving for Uy, Initial residual = 1.89994e-10, Final residual = 1.95108e-12, No Iterations 1
GAMG:  Solving for p, Initial residual = 6.24433e-09, Final residual = 2.75716e-12, No Iterations 1
time step continuity errors : sum local = 3.40893e-14, global = 1.06444e-16, cumulative = 1.52706e-06
ExecutionTime = 1524.79 s  ClockTime = 1699 s

fieldMinMax minMax write:
    min(mag(U)) = 0 in cell 36960 at location (0.000485708 0 0.05)
    max(mag(U)) = 74.5736 in cell 95 at location (-0.000598615 9.3238e-06 0.05)

Time = 59.9

smoothSolver:  Solving for Ux, Initial residual = 7.50659e-11, Final residual = 7.50659e-11, No Iterations 0
smoothSolver:  Solving for Uy, Initial residual = 2.04464e-10, Final residual = 2.2572e-12, No Iterations 1
GAMG:  Solving for p, Initial residual = 9.28237e-09, Final residual = 3.55367e-12, No Iterations 1
time step continuity errors : sum local = 4.07678e-14, global = -2.98637e-16, cumulative = 1.52706e-06
ExecutionTime = 1525.05 s  ClockTime = 1699 s

fieldMinMax minMax write:
    min(mag(U)) = 0 in cell 36960 at location (0.000485708 0 0.05)
    max(mag(U)) = 74.5736 in cell 95 at location (-0.000598615 9.3238e-06 0.05)

Time = 59.91

smoothSolver:  Solving for Ux, Initial residual = 1.00753e-10, Final residual = 1.23761e-12, No Iterations 1
smoothSolver:  Solving for Uy, Initial residual = 2.53718e-10, Final residual = 2.90448e-12, No Iterations 1
GAMG:  Solving for p, Initial residual = 2.46637e-09, Final residual = 1.52115e-12, No Iterations 1
time step continuity errors : sum local = 2.37187e-14, global = 5.99619e-17, cumulative = 1.52706e-06
ExecutionTime = 1525.32 s  ClockTime = 1699 s

fieldMinMax minMax write:
    min(mag(U)) = 0 in cell 36960 at location (0.000485708 0 0.05)
    max(mag(U)) = 74.5736 in cell 95 at location (-0.000598615 9.3238e-06 0.05)

Time = 59.92

smoothSolver:  Solving for Ux, Initial residual = 5.42533e-11, Final residual = 5.42533e-11, No Iterations 0
smoothSolver:  Solving for Uy, Initial residual = 1.73142e-10, Final residual = 1.93775e-12, No Iterations 1
GAMG:  Solving for p, Initial residual = 7.0838e-09, Final residual = 2.78442e-12, No Iterations 1
time step continuity errors : sum local = 3.45398e-14, global = 2.67669e-16, cumulative = 1.52706e-06
ExecutionTime = 1525.57 s  ClockTime = 1700 s

fieldMinMax minMax write:
    min(mag(U)) = 0 in cell 36960 at location (0.000485708 0 0.05)
    max(mag(U)) = 74.5736 in cell 95 at location (-0.000598615 9.3238e-06 0.05)

Time = 59.93

smoothSolver:  Solving for Ux, Initial residual = 7.81272e-11, Final residual = 7.81272e-11, No Iterations 0
smoothSolver:  Solving for Uy, Initial residual = 2.13677e-10, Final residual = 2.23668e-12, No Iterations 1
GAMG:  Solving for p, Initial residual = 9.83212e-09, Final residual = 3.88655e-12, No Iterations 1
time step continuity errors : sum local = 4.35325e-14, global = 6.73185e-16, cumulative = 1.52706e-06
ExecutionTime = 1525.81 s  ClockTime = 1700 s

fieldMinMax minMax write:
    min(mag(U)) = 0 in cell 36960 at location (0.000485708 0 0.05)
    max(mag(U)) = 74.5736 in cell 95 at location (-0.000598615 9.3238e-06 0.05)

Time = 59.94

smoothSolver:  Solving for Ux, Initial residual = 1.08051e-10, Final residual = 1.23316e-12, No Iterations 1
smoothSolver:  Solving for Uy, Initial residual = 2.81035e-10, Final residual = 2.9947e-12, No Iterations 1
GAMG:  Solving for p, Initial residual = 2.40812e-09, Final residual = 1.75961e-12, No Iterations 1
time step continuity errors : sum local = 2.56028e-14, global = 2.52562e-16, cumulative = 1.52706e-06
ExecutionTime = 1526.07 s  ClockTime = 1700 s

fieldMinMax minMax write:
    min(mag(U)) = 0 in cell 36960 at location (0.000485708 0 0.05)
    max(mag(U)) = 74.5736 in cell 95 at location (-0.000598615 9.3238e-06 0.05)

Time = 59.95

smoothSolver:  Solving for Ux, Initial residual = 5.65986e-11, Final residual = 5.65986e-11, No Iterations 0
smoothSolver:  Solving for Uy, Initial residual = 1.83757e-10, Final residual = 2.00421e-12, No Iterations 1
GAMG:  Solving for p, Initial residual = 6.61957e-09, Final residual = 2.64499e-12, No Iterations 1
time step continuity errors : sum local = 3.31349e-14, global = -1.67958e-16, cumulative = 1.52706e-06
ExecutionTime = 1526.31 s  ClockTime = 1700 s

fieldMinMax minMax write:
    min(mag(U)) = 0 in cell 36960 at location (0.000485708 0 0.05)
    max(mag(U)) = 74.5736 in cell 95 at location (-0.000598615 9.3238e-06 0.05)

Time = 59.96

smoothSolver:  Solving for Ux, Initial residual = 7.53412e-11, Final residual = 7.53412e-11, No Iterations 0
smoothSolver:  Solving for Uy, Initial residual = 2.01052e-10, Final residual = 2.30515e-12, No Iterations 1
GAMG:  Solving for p, Initial residual = 1.0101e-08, Final residual = 3.76464e-12, No Iterations 1
time step continuity errors : sum local = 4.24705e-14, global = -4.07048e-16, cumulative = 1.52706e-06
ExecutionTime = 1526.56 s  ClockTime = 1701 s

fieldMinMax minMax write:
    min(mag(U)) = 0 in cell 36960 at location (0.000485708 0 0.05)
    max(mag(U)) = 74.5736 in cell 95 at location (-0.000598615 9.3238e-06 0.05)

Time = 59.97

smoothSolver:  Solving for Ux, Initial residual = 1.09276e-10, Final residual = 1.26952e-12, No Iterations 1
smoothSolver:  Solving for Uy, Initial residual = 2.74477e-10, Final residual = 3.00089e-12, No Iterations 1
GAMG:  Solving for p, Initial residual = 2.80881e-09, Final residual = 1.82941e-12, No Iterations 1
time step continuity errors : sum local = 2.6147e-14, global = -2.77237e-17, cumulative = 1.52706e-06
ExecutionTime = 1526.83 s  ClockTime = 1701 s

fieldMinMax minMax write:
    min(mag(U)) = 0 in cell 36960 at location (0.000485708 0 0.05)
    max(mag(U)) = 74.5736 in cell 95 at location (-0.000598615 9.3238e-06 0.05)

Time = 59.98

smoothSolver:  Solving for Ux, Initial residual = 5.83509e-11, Final residual = 5.83509e-11, No Iterations 0
smoothSolver:  Solving for Uy, Initial residual = 1.91562e-10, Final residual = 2.01952e-12, No Iterations 1
GAMG:  Solving for p, Initial residual = 7.08228e-09, Final residual = 2.81654e-12, No Iterations 1
time step continuity errors : sum local = 3.45635e-14, global = 3.52131e-16, cumulative = 1.52706e-06
ExecutionTime = 1527.08 s  ClockTime = 1701 s

fieldMinMax minMax write:
    min(mag(U)) = 0 in cell 36960 at location (0.000485708 0 0.05)
    max(mag(U)) = 74.5736 in cell 95 at location (-0.000598615 9.3238e-06 0.05)

Time = 59.99

smoothSolver:  Solving for Ux, Initial residual = 8.11881e-11, Final residual = 8.11881e-11, No Iterations 0
smoothSolver:  Solving for Uy, Initial residual = 2.21785e-10, Final residual = 2.32025e-12, No Iterations 1
GAMG:  Solving for p, Initial residual = 9.84342e-09, Final residual = 3.95101e-12, No Iterations 1
time step continuity errors : sum local = 4.41184e-14, global = 3.0874e-16, cumulative = 1.52706e-06
ExecutionTime = 1527.35 s  ClockTime = 1702 s

fieldMinMax minMax write:
    min(mag(U)) = 0 in cell 36960 at location (0.000485708 0 0.05)
    max(mag(U)) = 74.5736 in cell 95 at location (-0.000598615 9.3238e-06 0.05)

Time = 60

smoothSolver:  Solving for Ux, Initial residual = 1.10178e-10, Final residual = 1.33117e-12, No Iterations 1
smoothSolver:  Solving for Uy, Initial residual = 2.80874e-10, Final residual = 3.1469e-12, No Iterations 1
GAMG:  Solving for p, Initial residual = 2.4684e-09, Final residual = 1.51246e-12, No Iterations 1
time step continuity errors : sum local = 2.35873e-14, global = 1.44116e-16, cumulative = 1.52706e-06
ExecutionTime = 1528.63 s  ClockTime = 1704 s

fieldMinMax minMax write:
    min(mag(U)) = 0 in cell 36960 at location (0.000485708 0 0.05)
    max(mag(U)) = 74.5736 in cell 95 at location (-0.000598615 9.3238e-06 0.05)

yPlus yPlus write:
    writing field yPlus
    patch topWall y+ : min = 0.0451573, max = 0.442935, average = 0.386587
    patch bottomWall y+ : min = 0.47851, max = 4.58185, average = 0.844251
writeCellCentres writeCellCentres write:
    writing cell-volumes field C to 60
    Writing the x component field of the cell-centres Cx to 60
    Writing the y component field of the cell-centres Cy to 60
    Writing the z component field of the cell-centres Cz to 60
wallShearStress wallShearStress write:
    writing field wallShearStress
    min/max(topWall) = (-1.65444e-09 -9.63564e-07 0), (9.47982e-09 -1.04661e-08 0)
    min/max(bottomWall) = (-46.5204 -0.879898 0), (-0.507429 -5.9526e-07 0)
End

