/*---------------------------------------------------------------------------*\
| =========                 |                                                 |
| \\      /  F ield         | OpenFOAM: The Open Source CFD Toolbox           |
|  \\    /   O peration     | Version:  v2012                                 |
|   \\  /    A nd           | Website:  www.openfoam.com                      |
|    \\/     M anipulation  |                                                 |
\*---------------------------------------------------------------------------*/
Build  : _7bdb509494-20201222 OPENFOAM=2012
Arch   : "LSB;label=32;scalar=64"
Exec   : simpleFoam
Date   : Mar 23 2025
Time   : 01:16:02
Host   : Taupok
PID    : 3306
I/O    : uncollated
Case   : /mnt/c/Users/lowjo/OneDrive/Desktop/ASTAR/DASH/testLaminarFlatPlate
nProcs : 1
trapFpe: Floating point exception trapping enabled (FOAM_SIGFPE).
fileModificationChecking : Monitoring run-time modified files using timeStampMaster (fileModificationSkew 5, maxFileModificationPolls 20)
allowSystemOperations : Allowing user-supplied system call operations

// * * * * * * * * * * * * * * * * * * * * * * * * * * * * * * * * * * * * * //
Create time

Create mesh for time = 0


SIMPLE: no convergence criteria found. Calculations will run for 60 steps.

Reading field p

Reading field U

Reading/calculating face flux field phi

Selecting incompressible transport model Newtonian
Selecting turbulence model type laminar
Selecting laminar stress model Stokes
No MRF models present

No finite volume options present

Starting time loop

wallShearStress wallShearStress:
    processing all wall patches

Time = 0.01

smoothSolver:  Solving for Ux, Initial residual = 0.999999, Final residual = 0.000494636, No Iterations 1
smoothSolver:  Solving for Uy, Initial residual = 1, Final residual = 0.00159445, No Iterations 1
GAMG:  Solving for p, Initial residual = 1, Final residual = 0.0919426, No Iterations 11
time step continuity errors : sum local = 1.02282e-06, global = 1.20311e-07, cumulative = 1.20311e-07
ExecutionTime = 1.52 s  ClockTime = 2 s

fieldMinMax minMax write:
    min(mag(U)) = 0 in cell 36960 at location (0.000485708 0 0.05)
    max(mag(U)) = 69.405 in cell 38668 at location (1.01691 0.00367563 0.05)

Time = 0.02

smoothSolver:  Solving for Ux, Initial residual = 0.22276, Final residual = 0.000374143, No Iterations 1
smoothSolver:  Solving for Uy, Initial residual = 0.417831, Final residual = 0.00118787, No Iterations 1
GAMG:  Solving for p, Initial residual = 0.00231627, Final residual = 0.000197169, No Iterations 4
time step continuity errors : sum local = 1.24657e-06, global = -9.18998e-08, cumulative = 2.84114e-08
ExecutionTime = 1.77 s  ClockTime = 2 s

fieldMinMax minMax write:
    min(mag(U)) = 0 in cell 36960 at location (0.000485708 0 0.05)
    max(mag(U)) = 69.4507 in cell 37767 at location (0.983202 0.00156898 0.05)

Time = 0.03

smoothSolver:  Solving for Ux, Initial residual = 0.125984, Final residual = 0.000224098, No Iterations 1
smoothSolver:  Solving for Uy, Initial residual = 0.246367, Final residual = 0.000693487, No Iterations 1
GAMG:  Solving for p, Initial residual = 0.00228012, Final residual = 0.000154589, No Iterations 3
time step continuity errors : sum local = 1.03373e-06, global = -4.21717e-08, cumulative = -1.37602e-08
ExecutionTime = 2.02 s  ClockTime = 2 s

fieldMinMax minMax write:
    min(mag(U)) = 0 in cell 36960 at location (0.000485708 0 0.05)
    max(mag(U)) = 69.5545 in cell 37769 at location (1.00567 0.00156898 0.05)

Time = 0.04

smoothSolver:  Solving for Ux, Initial residual = 0.0861526, Final residual = 0.000159265, No Iterations 1
smoothSolver:  Solving for Uy, Initial residual = 0.173705, Final residual = 0.000500383, No Iterations 1
GAMG:  Solving for p, Initial residual = 0.00239418, Final residual = 0.000232009, No Iterations 2
time step continuity errors : sum local = 1.57508e-06, global = 1.05361e-08, cumulative = -3.22412e-09
ExecutionTime = 2.25 s  ClockTime = 2 s

fieldMinMax minMax write:
    min(mag(U)) = 0 in cell 36960 at location (0.000485708 0 0.05)
    max(mag(U)) = 69.6631 in cell 37770 at location (1.01691 0.00156898 0.05)

Time = 0.05

smoothSolver:  Solving for Ux, Initial residual = 0.0646286, Final residual = 0.000123141, No Iterations 1
smoothSolver:  Solving for Uy, Initial residual = 0.134576, Final residual = 0.000394181, No Iterations 1
GAMG:  Solving for p, Initial residual = 0.00250939, Final residual = 0.000136118, No Iterations 3
time step continuity errors : sum local = 9.30596e-07, global = 3.89252e-08, cumulative = 3.57011e-08
ExecutionTime = 2.5 s  ClockTime = 3 s

fieldMinMax minMax write:
    min(mag(U)) = 0 in cell 36960 at location (0.000485708 0 0.05)
    max(mag(U)) = 69.763 in cell 37771 at location (1.02814 0.00156898 0.05)

Time = 0.06

smoothSolver:  Solving for Ux, Initial residual = 0.0514241, Final residual = 9.99374e-05, No Iterations 1
smoothSolver:  Solving for Uy, Initial residual = 0.110653, Final residual = 0.000320568, No Iterations 1
GAMG:  Solving for p, Initial residual = 0.00232956, Final residual = 0.000148912, No Iterations 2
time step continuity errors : sum local = 1.0315e-06, global = 5.58573e-09, cumulative = 4.12868e-08
ExecutionTime = 2.72 s  ClockTime = 3 s

fieldMinMax minMax write:
    min(mag(U)) = 0 in cell 36960 at location (0.000485708 0 0.05)
    max(mag(U)) = 69.8494 in cell 37771 at location (1.02814 0.00156898 0.05)

Time = 0.07

smoothSolver:  Solving for Ux, Initial residual = 0.0420347, Final residual = 8.31592e-05, No Iterations 1
smoothSolver:  Solving for Uy, Initial residual = 0.0941157, Final residual = 0.00027676, No Iterations 1
GAMG:  Solving for p, Initial residual = 0.00225261, Final residual = 0.000203275, No Iterations 2
time step continuity errors : sum local = 1.41415e-06, global = -5.76421e-08, cumulative = -1.63553e-08
ExecutionTime = 2.96 s  ClockTime = 3 s

fieldMinMax minMax write:
    min(mag(U)) = 0 in cell 36960 at location (0.000485708 0 0.05)
    max(mag(U)) = 69.922 in cell 37771 at location (1.02814 0.00156898 0.05)

Time = 0.08

smoothSolver:  Solving for Ux, Initial residual = 0.035197, Final residual = 7.07427e-05, No Iterations 1
smoothSolver:  Solving for Uy, Initial residual = 0.0812431, Final residual = 0.000239656, No Iterations 1
GAMG:  Solving for p, Initial residual = 0.00217788, Final residual = 0.000148887, No Iterations 3
time step continuity errors : sum local = 1.04215e-06, global = 1.40147e-07, cumulative = 1.23792e-07
ExecutionTime = 3.23 s  ClockTime = 3 s

fieldMinMax minMax write:
    min(mag(U)) = 0 in cell 36960 at location (0.000485708 0 0.05)
    max(mag(U)) = 70.0176 in cell 37732 at location (0.695374 0.00156898 0.05)

Time = 0.09

smoothSolver:  Solving for Ux, Initial residual = 0.0304555, Final residual = 6.24564e-05, No Iterations 1
smoothSolver:  Solving for Uy, Initial residual = 0.072063, Final residual = 0.000208726, No Iterations 1
GAMG:  Solving for p, Initial residual = 0.00200337, Final residual = 0.000161716, No Iterations 2
time step continuity errors : sum local = 1.15977e-06, global = -1.42944e-07, cumulative = -1.91519e-08
ExecutionTime = 3.45 s  ClockTime = 4 s

fieldMinMax minMax write:
    min(mag(U)) = 0 in cell 36960 at location (0.000485708 0 0.05)
    max(mag(U)) = 70.1354 in cell 37730 at location (0.68238 0.00156898 0.05)

Time = 0.1

smoothSolver:  Solving for Ux, Initial residual = 0.0263169, Final residual = 5.58512e-05, No Iterations 1
smoothSolver:  Solving for Uy, Initial residual = 0.0644089, Final residual = 0.000187805, No Iterations 1
GAMG:  Solving for p, Initial residual = 0.00198359, Final residual = 0.000153647, No Iterations 3
time step continuity errors : sum local = 1.10594e-06, global = 2.28397e-07, cumulative = 2.09245e-07
ExecutionTime = 3.71 s  ClockTime = 4 s

fieldMinMax minMax write:
    min(mag(U)) = 0 in cell 36960 at location (0.000485708 0 0.05)
    max(mag(U)) = 70.2513 in cell 37728 at location (0.669664 0.00156898 0.05)

Time = 0.11

smoothSolver:  Solving for Ux, Initial residual = 0.0233024, Final residual = 5.14714e-05, No Iterations 1
smoothSolver:  Solving for Uy, Initial residual = 0.0579121, Final residual = 0.00016719, No Iterations 1
GAMG:  Solving for p, Initial residual = 0.00194317, Final residual = 0.000175245, No Iterations 2
time step continuity errors : sum local = 1.28517e-06, global = -1.65203e-07, cumulative = 4.40427e-08
ExecutionTime = 3.94 s  ClockTime = 4 s

fieldMinMax minMax write:
    min(mag(U)) = 0 in cell 36960 at location (0.000485708 0 0.05)
    max(mag(U)) = 70.3633 in cell 37727 at location (0.663408 0.00156898 0.05)

Time = 0.12

smoothSolver:  Solving for Ux, Initial residual = 0.0207129, Final residual = 4.76205e-05, No Iterations 1
smoothSolver:  Solving for Uy, Initial residual = 0.052367, Final residual = 0.000151062, No Iterations 1
GAMG:  Solving for p, Initial residual = 0.00199866, Final residual = 0.000122565, No Iterations 3
time step continuity errors : sum local = 9.04253e-07, global = 1.18465e-07, cumulative = 1.62508e-07
ExecutionTime = 4.2 s  ClockTime = 4 s

fieldMinMax minMax write:
    min(mag(U)) = 0 in cell 36960 at location (0.000485708 0 0.05)
    max(mag(U)) = 70.4697 in cell 37726 at location (0.657219 0.00156898 0.05)

Time = 0.13

smoothSolver:  Solving for Ux, Initial residual = 0.0188304, Final residual = 4.50417e-05, No Iterations 1
smoothSolver:  Solving for Uy, Initial residual = 0.0479133, Final residual = 0.000136072, No Iterations 1
GAMG:  Solving for p, Initial residual = 0.00193822, Final residual = 0.000150847, No Iterations 2
time step continuity errors : sum local = 1.13662e-06, global = -9.47249e-08, cumulative = 6.77832e-08
ExecutionTime = 4.42 s  ClockTime = 5 s

fieldMinMax minMax write:
    min(mag(U)) = 0 in cell 36960 at location (0.000485708 0 0.05)
    max(mag(U)) = 70.5687 in cell 37725 at location (0.651098 0.00156898 0.05)

Time = 0.14

smoothSolver:  Solving for Ux, Initial residual = 0.0169892, Final residual = 4.23454e-05, No Iterations 1
smoothSolver:  Solving for Uy, Initial residual = 0.0438643, Final residual = 0.000124559, No Iterations 1
GAMG:  Solving for p, Initial residual = 0.00198405, Final residual = 0.000107606, No Iterations 3
time step continuity errors : sum local = 8.15194e-07, global = -1.53391e-07, cumulative = -8.56079e-08
ExecutionTime = 4.68 s  ClockTime = 5 s

fieldMinMax minMax write:
    min(mag(U)) = 0 in cell 36960 at location (0.000485708 0 0.05)
    max(mag(U)) = 70.6588 in cell 37724 at location (0.645042 0.00156898 0.05)

Time = 0.15

smoothSolver:  Solving for Ux, Initial residual = 0.0156186, Final residual = 4.04659e-05, No Iterations 1
smoothSolver:  Solving for Uy, Initial residual = 0.0404057, Final residual = 0.000113453, No Iterations 1
GAMG:  Solving for p, Initial residual = 0.00191625, Final residual = 0.000183698, No Iterations 1
time step continuity errors : sum local = 1.41449e-06, global = -6.49359e-08, cumulative = -1.50544e-07
ExecutionTime = 4.88 s  ClockTime = 5 s

fieldMinMax minMax write:
    min(mag(U)) = 0 in cell 36960 at location (0.000485708 0 0.05)
    max(mag(U)) = 70.7386 in cell 37724 at location (0.645042 0.00156898 0.05)

Time = 0.16

smoothSolver:  Solving for Ux, Initial residual = 0.014203, Final residual = 3.8124e-05, No Iterations 1
smoothSolver:  Solving for Uy, Initial residual = 0.0375765, Final residual = 0.000106044, No Iterations 1
GAMG:  Solving for p, Initial residual = 0.0019929, Final residual = 0.000182241, No Iterations 3
time step continuity errors : sum local = 1.40658e-06, global = -2.31246e-07, cumulative = -3.8179e-07
ExecutionTime = 5.15 s  ClockTime = 5 s

fieldMinMax minMax write:
    min(mag(U)) = 0 in cell 36960 at location (0.000485708 0 0.05)
    max(mag(U)) = 70.8073 in cell 37724 at location (0.645042 0.00156898 0.05)

Time = 0.17

smoothSolver:  Solving for Ux, Initial residual = 0.0132661, Final residual = 3.70101e-05, No Iterations 1
smoothSolver:  Solving for Uy, Initial residual = 0.0345637, Final residual = 9.57667e-05, No Iterations 1
GAMG:  Solving for p, Initial residual = 0.00191203, Final residual = 0.000101248, No Iterations 3
time step continuity errors : sum local = 7.98964e-07, global = 3.07499e-08, cumulative = -3.5104e-07
ExecutionTime = 5.43 s  ClockTime = 6 s

fieldMinMax minMax write:
    min(mag(U)) = 0 in cell 36960 at location (0.000485708 0 0.05)
    max(mag(U)) = 70.8645 in cell 37723 at location (0.639051 0.00156898 0.05)

Time = 0.18

smoothSolver:  Solving for Ux, Initial residual = 0.0124473, Final residual = 3.5847e-05, No Iterations 1
smoothSolver:  Solving for Uy, Initial residual = 0.0323893, Final residual = 8.93742e-05, No Iterations 1
GAMG:  Solving for p, Initial residual = 0.00178048, Final residual = 0.00015063, No Iterations 1
time step continuity errors : sum local = 1.21233e-06, global = 3.7696e-09, cumulative = -3.4727e-07
ExecutionTime = 5.65 s  ClockTime = 6 s

fieldMinMax minMax write:
    min(mag(U)) = 0 in cell 36960 at location (0.000485708 0 0.05)
    max(mag(U)) = 70.9101 in cell 37723 at location (0.639051 0.00156898 0.05)

Time = 0.19

smoothSolver:  Solving for Ux, Initial residual = 0.0114398, Final residual = 3.39209e-05, No Iterations 1
smoothSolver:  Solving for Uy, Initial residual = 0.0305546, Final residual = 8.4891e-05, No Iterations 1
GAMG:  Solving for p, Initial residual = 0.00180649, Final residual = 0.000133122, No Iterations 3
time step continuity errors : sum local = 1.07263e-06, global = -1.63044e-07, cumulative = -5.10314e-07
ExecutionTime = 5.91 s  ClockTime = 6 s

fieldMinMax minMax write:
    min(mag(U)) = 0 in cell 36960 at location (0.000485708 0 0.05)
    max(mag(U)) = 70.9445 in cell 37723 at location (0.639051 0.00156898 0.05)

Time = 0.2

smoothSolver:  Solving for Ux, Initial residual = 0.0106661, Final residual = 3.2741e-05, No Iterations 1
smoothSolver:  Solving for Uy, Initial residual = 0.0281325, Final residual = 7.67856e-05, No Iterations 1
GAMG:  Solving for p, Initial residual = 0.00169212, Final residual = 0.000159962, No Iterations 2
time step continuity errors : sum local = 1.30417e-06, global = 1.53973e-07, cumulative = -3.56341e-07
ExecutionTime = 6.13 s  ClockTime = 6 s

fieldMinMax minMax write:
    min(mag(U)) = 0 in cell 36960 at location (0.000485708 0 0.05)
    max(mag(U)) = 70.9684 in cell 37722 at location (0.633124 0.00156898 0.05)

Time = 0.21

smoothSolver:  Solving for Ux, Initial residual = 0.0100853, Final residual = 3.17062e-05, No Iterations 1
smoothSolver:  Solving for Uy, Initial residual = 0.0264965, Final residual = 7.22724e-05, No Iterations 1
GAMG:  Solving for p, Initial residual = 0.00164003, Final residual = 0.000151177, No Iterations 2
time step continuity errors : sum local = 1.25319e-06, global = 1.96898e-07, cumulative = -1.59443e-07
ExecutionTime = 6.4 s  ClockTime = 7 s

fieldMinMax minMax write:
    min(mag(U)) = 0 in cell 36960 at location (0.000485708 0 0.05)
    max(mag(U)) = 70.9829 in cell 37722 at location (0.633124 0.00156898 0.05)

Time = 0.22

smoothSolver:  Solving for Ux, Initial residual = 0.00940248, Final residual = 3.04953e-05, No Iterations 1
smoothSolver:  Solving for Uy, Initial residual = 0.0249404, Final residual = 6.7851e-05, No Iterations 1
GAMG:  Solving for p, Initial residual = 0.00157893, Final residual = 0.000107252, No Iterations 3
time step continuity errors : sum local = 8.95123e-07, global = -1.49057e-07, cumulative = -3.085e-07
ExecutionTime = 6.65 s  ClockTime = 7 s

fieldMinMax minMax write:
    min(mag(U)) = 0 in cell 36960 at location (0.000485708 0 0.05)
    max(mag(U)) = 70.9983 in cell 37507 at location (0.107579 0.00156898 0.05)

Time = 0.23

smoothSolver:  Solving for Ux, Initial residual = 0.00886019, Final residual = 2.94704e-05, No Iterations 1
smoothSolver:  Solving for Uy, Initial residual = 0.023532, Final residual = 6.38459e-05, No Iterations 1
GAMG:  Solving for p, Initial residual = 0.00149173, Final residual = 9.92276e-05, No Iterations 3
time step continuity errors : sum local = 8.35698e-07, global = -1.3324e-07, cumulative = -4.4174e-07
ExecutionTime = 6.92 s  ClockTime = 7 s

fieldMinMax minMax write:
    min(mag(U)) = 0 in cell 36960 at location (0.000485708 0 0.05)
    max(mag(U)) = 71.0797 in cell 37511 at location (0.112498 0.00156898 0.05)

Time = 0.24

smoothSolver:  Solving for Ux, Initial residual = 0.0083837, Final residual = 2.85902e-05, No Iterations 1
smoothSolver:  Solving for Uy, Initial residual = 0.0220594, Final residual = 5.95605e-05, No Iterations 1
GAMG:  Solving for p, Initial residual = 0.00139769, Final residual = 7.23633e-05, No Iterations 3
time step continuity errors : sum local = 6.16427e-07, global = -3.3453e-08, cumulative = -4.75193e-07
ExecutionTime = 7.17 s  ClockTime = 8 s

fieldMinMax minMax write:
    min(mag(U)) = 0 in cell 36960 at location (0.000485708 0 0.05)
    max(mag(U)) = 71.1603 in cell 37516 at location (0.118712 0.00156898 0.05)

Time = 0.25

smoothSolver:  Solving for Ux, Initial residual = 0.00795142, Final residual = 2.77125e-05, No Iterations 1
smoothSolver:  Solving for Uy, Initial residual = 0.0207562, Final residual = 5.57372e-05, No Iterations 1
GAMG:  Solving for p, Initial residual = 0.00130339, Final residual = 0.000101894, No Iterations 2
time step continuity errors : sum local = 8.7765e-07, global = -3.41089e-08, cumulative = -5.09302e-07
ExecutionTime = 7.4 s  ClockTime = 8 s

fieldMinMax minMax write:
    min(mag(U)) = 0 in cell 36960 at location (0.000485708 0 0.05)
    max(mag(U)) = 71.2401 in cell 37520 at location (0.123736 0.00156898 0.05)

Time = 0.26

smoothSolver:  Solving for Ux, Initial residual = 0.00748259, Final residual = 2.66494e-05, No Iterations 1
smoothSolver:  Solving for Uy, Initial residual = 0.0195676, Final residual = 5.24122e-05, No Iterations 1
GAMG:  Solving for p, Initial residual = 0.00125653, Final residual = 7.48389e-05, No Iterations 3
time step continuity errors : sum local = 6.48252e-07, global = -8.203e-08, cumulative = -5.91332e-07
ExecutionTime = 7.65 s  ClockTime = 8 s

fieldMinMax minMax write:
    min(mag(U)) = 0 in cell 36960 at location (0.000485708 0 0.05)
    max(mag(U)) = 71.3188 in cell 37525 at location (0.130083 0.00156898 0.05)

Time = 0.27

smoothSolver:  Solving for Ux, Initial residual = 0.00709318, Final residual = 2.5695e-05, No Iterations 1
smoothSolver:  Solving for Uy, Initial residual = 0.0184226, Final residual = 4.91891e-05, No Iterations 1
GAMG:  Solving for p, Initial residual = 0.00118821, Final residual = 7.26998e-05, No Iterations 3
time step continuity errors : sum local = 6.34783e-07, global = -6.97361e-08, cumulative = -6.61068e-07
ExecutionTime = 7.91 s  ClockTime = 8 s

fieldMinMax minMax write:
    min(mag(U)) = 0 in cell 36960 at location (0.000485708 0 0.05)
    max(mag(U)) = 71.3966 in cell 37529 at location (0.135215 0.00156898 0.05)

Time = 0.28

smoothSolver:  Solving for Ux, Initial residual = 0.00672019, Final residual = 2.47624e-05, No Iterations 1
smoothSolver:  Solving for Uy, Initial residual = 0.0173251, Final residual = 4.61055e-05, No Iterations 1
GAMG:  Solving for p, Initial residual = 0.00112849, Final residual = 6.89375e-05, No Iterations 3
time step continuity errors : sum local = 6.06231e-07, global = -5.2299e-08, cumulative = -7.13367e-07
ExecutionTime = 8.16 s  ClockTime = 9 s

fieldMinMax minMax write:
    min(mag(U)) = 0 in cell 36960 at location (0.000485708 0 0.05)
    max(mag(U)) = 71.4733 in cell 37533 at location (0.140395 0.00156898 0.05)

Time = 0.29

smoothSolver:  Solving for Ux, Initial residual = 0.00637633, Final residual = 2.38506e-05, No Iterations 1
smoothSolver:  Solving for Uy, Initial residual = 0.0162901, Final residual = 4.32098e-05, No Iterations 1
GAMG:  Solving for p, Initial residual = 0.00107415, Final residual = 6.39001e-05, No Iterations 3
time step continuity errors : sum local = 5.65775e-07, global = -3.68468e-08, cumulative = -7.50214e-07
ExecutionTime = 8.42 s  ClockTime = 9 s

fieldMinMax minMax write:
    min(mag(U)) = 0 in cell 36960 at location (0.000485708 0 0.05)
    max(mag(U)) = 71.5489 in cell 37538 at location (0.14694 0.00156898 0.05)

Time = 0.3

smoothSolver:  Solving for Ux, Initial residual = 0.00604621, Final residual = 2.29511e-05, No Iterations 1
smoothSolver:  Solving for Uy, Initial residual = 0.0153222, Final residual = 4.05381e-05, No Iterations 1
GAMG:  Solving for p, Initial residual = 0.0010289, Final residual = 6.66708e-05, No Iterations 3
time step continuity errors : sum local = 5.93658e-07, global = -6.03053e-08, cumulative = -8.10519e-07
ExecutionTime = 8.68 s  ClockTime = 9 s

fieldMinMax minMax write:
    min(mag(U)) = 0 in cell 36960 at location (0.000485708 0 0.05)
    max(mag(U)) = 71.6233 in cell 37542 at location (0.152231 0.00156898 0.05)

Time = 0.31

smoothSolver:  Solving for Ux, Initial residual = 0.0057357, Final residual = 2.21875e-05, No Iterations 1
smoothSolver:  Solving for Uy, Initial residual = 0.0144101, Final residual = 3.80252e-05, No Iterations 1
GAMG:  Solving for p, Initial residual = 0.000994224, Final residual = 6.77556e-05, No Iterations 3
time step continuity errors : sum local = 6.06398e-07, global = -3.81244e-08, cumulative = -8.48643e-07
ExecutionTime = 8.93 s  ClockTime = 9 s

fieldMinMax minMax write:
    min(mag(U)) = 0 in cell 36960 at location (0.000485708 0 0.05)
    max(mag(U)) = 71.6964 in cell 37546 at location (0.157573 0.00156898 0.05)

Time = 0.32

smoothSolver:  Solving for Ux, Initial residual = 0.00544909, Final residual = 2.1515e-05, No Iterations 1
smoothSolver:  Solving for Uy, Initial residual = 0.0135147, Final residual = 3.55988e-05, No Iterations 1
GAMG:  Solving for p, Initial residual = 0.000962096, Final residual = 6.88294e-05, No Iterations 3
time step continuity errors : sum local = 6.18926e-07, global = -3.35689e-08, cumulative = -8.82212e-07
ExecutionTime = 9.19 s  ClockTime = 10 s

fieldMinMax minMax write:
    min(mag(U)) = 0 in cell 36960 at location (0.000485708 0 0.05)
    max(mag(U)) = 71.7682 in cell 37551 at location (0.164321 0.00156898 0.05)

Time = 0.33

smoothSolver:  Solving for Ux, Initial residual = 0.00518324, Final residual = 2.08727e-05, No Iterations 1
smoothSolver:  Solving for Uy, Initial residual = 0.0126999, Final residual = 3.33872e-05, No Iterations 1
GAMG:  Solving for p, Initial residual = 0.00093974, Final residual = 6.71858e-05, No Iterations 3
time step continuity errors : sum local = 6.06572e-07, global = -2.37594e-08, cumulative = -9.05972e-07
ExecutionTime = 9.43 s  ClockTime = 10 s

fieldMinMax minMax write:
    min(mag(U)) = 0 in cell 36960 at location (0.000485708 0 0.05)
    max(mag(U)) = 71.8386 in cell 37555 at location (0.169778 0.00156898 0.05)

Time = 0.34

smoothSolver:  Solving for Ux, Initial residual = 0.00494102, Final residual = 2.02541e-05, No Iterations 1
smoothSolver:  Solving for Uy, Initial residual = 0.0119008, Final residual = 3.13016e-05, No Iterations 1
GAMG:  Solving for p, Initial residual = 0.000920557, Final residual = 6.73812e-05, No Iterations 3
time step continuity errors : sum local = 6.10552e-07, global = -1.4489e-08, cumulative = -9.20461e-07
ExecutionTime = 9.65 s  ClockTime = 10 s

fieldMinMax minMax write:
    min(mag(U)) = 0 in cell 36960 at location (0.000485708 0 0.05)
    max(mag(U)) = 71.9076 in cell 37559 at location (0.175286 0.00156898 0.05)

Time = 0.35

smoothSolver:  Solving for Ux, Initial residual = 0.00471151, Final residual = 1.9631e-05, No Iterations 1
smoothSolver:  Solving for Uy, Initial residual = 0.011172, Final residual = 2.94131e-05, No Iterations 1
GAMG:  Solving for p, Initial residual = 0.000907734, Final residual = 7.04353e-05, No Iterations 3
time step continuity errors : sum local = 6.40182e-07, global = 4.29784e-09, cumulative = -9.16163e-07
ExecutionTime = 9.88 s  ClockTime = 10 s

fieldMinMax minMax write:
    min(mag(U)) = 0 in cell 36960 at location (0.000485708 0 0.05)
    max(mag(U)) = 71.9751 in cell 37563 at location (0.180846 0.00156898 0.05)

Time = 0.36

smoothSolver:  Solving for Ux, Initial residual = 0.00449365, Final residual = 1.89984e-05, No Iterations 1
smoothSolver:  Solving for Uy, Initial residual = 0.0104661, Final residual = 2.76703e-05, No Iterations 1
GAMG:  Solving for p, Initial residual = 0.00089675, Final residual = 7.19151e-05, No Iterations 3
time step continuity errors : sum local = 6.55265e-07, global = 2.37837e-09, cumulative = -9.13785e-07
ExecutionTime = 10.11 s  ClockTime = 11 s

fieldMinMax minMax write:
    min(mag(U)) = 0 in cell 36960 at location (0.000485708 0 0.05)
    max(mag(U)) = 72.0411 in cell 37567 at location (0.186459 0.00156898 0.05)

Time = 0.37

smoothSolver:  Solving for Ux, Initial residual = 0.00428526, Final residual = 1.8352e-05, No Iterations 1
smoothSolver:  Solving for Uy, Initial residual = 0.00981817, Final residual = 2.60647e-05, No Iterations 1
GAMG:  Solving for p, Initial residual = 0.000890407, Final residual = 6.76533e-05, No Iterations 3
time step continuity errors : sum local = 6.17736e-07, global = 3.81182e-08, cumulative = -8.75666e-07
ExecutionTime = 10.34 s  ClockTime = 11 s

fieldMinMax minMax write:
    min(mag(U)) = 0 in cell 36960 at location (0.000485708 0 0.05)
    max(mag(U)) = 72.1055 in cell 37571 at location (0.192124 0.00156898 0.05)

Time = 0.38

smoothSolver:  Solving for Ux, Initial residual = 0.00408477, Final residual = 1.76865e-05, No Iterations 1
smoothSolver:  Solving for Uy, Initial residual = 0.00919318, Final residual = 2.45818e-05, No Iterations 1
GAMG:  Solving for p, Initial residual = 0.000881723, Final residual = 7.14476e-05, No Iterations 3
time step continuity errors : sum local = 6.53484e-07, global = 2.16036e-08, cumulative = -8.54063e-07
ExecutionTime = 10.57 s  ClockTime = 11 s

fieldMinMax minMax write:
    min(mag(U)) = 0 in cell 36960 at location (0.000485708 0 0.05)
    max(mag(U)) = 72.1683 in cell 37575 at location (0.197844 0.00156898 0.05)

Time = 0.39

smoothSolver:  Solving for Ux, Initial residual = 0.00389122, Final residual = 1.70044e-05, No Iterations 1
smoothSolver:  Solving for Uy, Initial residual = 0.00862965, Final residual = 2.32259e-05, No Iterations 1
GAMG:  Solving for p, Initial residual = 0.000875632, Final residual = 6.87185e-05, No Iterations 3
time step continuity errors : sum local = 6.29298e-07, global = 7.24117e-08, cumulative = -7.81651e-07
ExecutionTime = 10.8 s  ClockTime = 11 s

fieldMinMax minMax write:
    min(mag(U)) = 0 in cell 36960 at location (0.000485708 0 0.05)
    max(mag(U)) = 72.2293 in cell 37579 at location (0.203618 0.00156898 0.05)

Time = 0.4

smoothSolver:  Solving for Ux, Initial residual = 0.00370214, Final residual = 1.63044e-05, No Iterations 1
smoothSolver:  Solving for Uy, Initial residual = 0.00809738, Final residual = 2.1982e-05, No Iterations 1
GAMG:  Solving for p, Initial residual = 0.00086769, Final residual = 7.1075e-05, No Iterations 3
time step continuity errors : sum local = 6.51521e-07, global = 3.79631e-08, cumulative = -7.43688e-07
ExecutionTime = 11.03 s  ClockTime = 12 s

fieldMinMax minMax write:
    min(mag(U)) = 0 in cell 36960 at location (0.000485708 0 0.05)
    max(mag(U)) = 72.2881 in cell 37581 at location (0.206525 0.00156898 0.05)

Time = 0.41

smoothSolver:  Solving for Ux, Initial residual = 0.00352044, Final residual = 1.55986e-05, No Iterations 1
smoothSolver:  Solving for Uy, Initial residual = 0.00760961, Final residual = 2.08094e-05, No Iterations 1
GAMG:  Solving for p, Initial residual = 0.000861585, Final residual = 6.56428e-05, No Iterations 3
time step continuity errors : sum local = 6.02018e-07, global = 1.02527e-07, cumulative = -6.4116e-07
ExecutionTime = 11.25 s  ClockTime = 12 s

fieldMinMax minMax write:
    min(mag(U)) = 0 in cell 36960 at location (0.000485708 0 0.05)
    max(mag(U)) = 72.3428 in cell 37581 at location (0.206525 0.00156898 0.05)

Time = 0.42

smoothSolver:  Solving for Ux, Initial residual = 0.00333911, Final residual = 1.48775e-05, No Iterations 1
smoothSolver:  Solving for Uy, Initial residual = 0.00714926, Final residual = 1.97358e-05, No Iterations 1
GAMG:  Solving for p, Initial residual = 0.000852165, Final residual = 6.77377e-05, No Iterations 3
time step continuity errors : sum local = 6.21393e-07, global = 5.29058e-08, cumulative = -5.88255e-07
ExecutionTime = 11.48 s  ClockTime = 12 s

fieldMinMax minMax write:
    min(mag(U)) = 0 in cell 36960 at location (0.000485708 0 0.05)
    max(mag(U)) = 72.3942 in cell 37585 at location (0.211859 0.00156898 0.05)

Time = 0.43

smoothSolver:  Solving for Ux, Initial residual = 0.0031688, Final residual = 1.41591e-05, No Iterations 1
smoothSolver:  Solving for Uy, Initial residual = 0.00670887, Final residual = 1.86871e-05, No Iterations 1
GAMG:  Solving for p, Initial residual = 0.000842432, Final residual = 6.51155e-05, No Iterations 3
time step continuity errors : sum local = 5.9732e-07, global = 1.12593e-07, cumulative = -4.75662e-07
ExecutionTime = 11.71 s  ClockTime = 12 s

fieldMinMax minMax write:
    min(mag(U)) = 0 in cell 36960 at location (0.000485708 0 0.05)
    max(mag(U)) = 72.4454 in cell 37591 at location (0.220168 0.00156898 0.05)

Time = 0.44

smoothSolver:  Solving for Ux, Initial residual = 0.00299808, Final residual = 1.34353e-05, No Iterations 1
smoothSolver:  Solving for Uy, Initial residual = 0.00630062, Final residual = 1.77349e-05, No Iterations 1
GAMG:  Solving for p, Initial residual = 0.000833462, Final residual = 6.14235e-05, No Iterations 3
time step continuity errors : sum local = 5.63306e-07, global = 7.73391e-08, cumulative = -3.98323e-07
ExecutionTime = 11.95 s  ClockTime = 12 s

fieldMinMax minMax write:
    min(mag(U)) = 0 in cell 36960 at location (0.000485708 0 0.05)
    max(mag(U)) = 72.4976 in cell 37598 at location (0.230569 0.00156898 0.05)

Time = 0.45

smoothSolver:  Solving for Ux, Initial residual = 0.0028381, Final residual = 1.27206e-05, No Iterations 1
smoothSolver:  Solving for Uy, Initial residual = 0.00589503, Final residual = 1.67788e-05, No Iterations 1
GAMG:  Solving for p, Initial residual = 0.000819841, Final residual = 6.13541e-05, No Iterations 3
time step continuity errors : sum local = 5.62467e-07, global = 1.01201e-07, cumulative = -2.97122e-07
ExecutionTime = 12.18 s  ClockTime = 13 s

fieldMinMax minMax write:
    min(mag(U)) = 0 in cell 36960 at location (0.000485708 0 0.05)
    max(mag(U)) = 72.5506 in cell 37605 at location (0.241786 0.00156898 0.05)

Time = 0.46

smoothSolver:  Solving for Ux, Initial residual = 0.00268381, Final residual = 1.20295e-05, No Iterations 1
smoothSolver:  Solving for Uy, Initial residual = 0.00552402, Final residual = 1.59083e-05, No Iterations 1
GAMG:  Solving for p, Initial residual = 0.000808646, Final residual = 5.98574e-05, No Iterations 3
time step continuity errors : sum local = 5.48477e-07, global = 9.07296e-08, cumulative = -2.06393e-07
ExecutionTime = 12.41 s  ClockTime = 13 s

fieldMinMax minMax write:
    min(mag(U)) = 0 in cell 36960 at location (0.000485708 0 0.05)
    max(mag(U)) = 72.6037 in cell 37611 at location (0.252101 0.00156898 0.05)

Time = 0.47

smoothSolver:  Solving for Ux, Initial residual = 0.00254288, Final residual = 1.14186e-05, No Iterations 1
smoothSolver:  Solving for Uy, Initial residual = 0.00515492, Final residual = 1.5046e-05, No Iterations 1
GAMG:  Solving for p, Initial residual = 0.000793902, Final residual = 5.99315e-05, No Iterations 3
time step continuity errors : sum local = 5.48863e-07, global = 8.65415e-08, cumulative = -1.19851e-07
ExecutionTime = 12.64 s  ClockTime = 13 s

fieldMinMax minMax write:
    min(mag(U)) = 0 in cell 36960 at location (0.000485708 0 0.05)
    max(mag(U)) = 72.6563 in cell 37616 at location (0.261222 0.00156898 0.05)

Time = 0.48

smoothSolver:  Solving for Ux, Initial residual = 0.00241384, Final residual = 1.0892e-05, No Iterations 1
smoothSolver:  Solving for Uy, Initial residual = 0.00481712, Final residual = 1.42493e-05, No Iterations 1
GAMG:  Solving for p, Initial residual = 0.000780171, Final residual = 6.02126e-05, No Iterations 3
time step continuity errors : sum local = 5.51086e-07, global = 8.41298e-08, cumulative = -3.57214e-08
ExecutionTime = 12.86 s  ClockTime = 13 s

fieldMinMax minMax write:
    min(mag(U)) = 0 in cell 36960 at location (0.000485708 0 0.05)
    max(mag(U)) = 72.7077 in cell 37621 at location (0.27085 0.00156898 0.05)

Time = 0.49

smoothSolver:  Solving for Ux, Initial residual = 0.00229465, Final residual = 1.04314e-05, No Iterations 1
smoothSolver:  Solving for Uy, Initial residual = 0.00448739, Final residual = 1.34849e-05, No Iterations 1
GAMG:  Solving for p, Initial residual = 0.000766135, Final residual = 6.05774e-05, No Iterations 3
time step continuity errors : sum local = 5.54062e-07, global = 7.61556e-08, cumulative = 4.04342e-08
ExecutionTime = 13.1 s  ClockTime = 14 s

fieldMinMax minMax write:
    min(mag(U)) = 0 in cell 36960 at location (0.000485708 0 0.05)
    max(mag(U)) = 72.7573 in cell 37625 at location (0.278936 0.00156898 0.05)

Time = 0.5

smoothSolver:  Solving for Ux, Initial residual = 0.00218805, Final residual = 1.00305e-05, No Iterations 1
smoothSolver:  Solving for Uy, Initial residual = 0.00419174, Final residual = 1.27861e-05, No Iterations 1
GAMG:  Solving for p, Initial residual = 0.000750496, Final residual = 6.20825e-05, No Iterations 3
time step continuity errors : sum local = 5.67484e-07, global = 7.67261e-08, cumulative = 1.1716e-07
ExecutionTime = 13.68 s  ClockTime = 15 s

fieldMinMax minMax write:
    min(mag(U)) = 0 in cell 36960 at location (0.000485708 0 0.05)
    max(mag(U)) = 72.8048 in cell 37628 at location (0.285235 0.00156898 0.05)

yPlus yPlus write:
    writing field yPlus
    patch topWall y+ : min = 0.0107279, max = 0.132557, average = 0.105233
    patch bottomWall y+ : min = 26.676, max = 51.0723, average = 42.5925
writeCellCentres writeCellCentres write:
    writing cell-volumes field C to 0.5
    Writing the x component field of the cell-centres Cx to 0.5
    Writing the y component field of the cell-centres Cy to 0.5
    Writing the z component field of the cell-centres Cz to 0.5
wallShearStress wallShearStress write:
    writing field wallShearStress
    min/max(topWall) = (-8.07456e-10 -9.92936e-07 0), (2.06568e-09 -6.93849e-09 0)
    min/max(bottomWall) = (-1.84251 -0.00283249 0), (-0.502624 5.42332e-05 0)
Time = 0.51

smoothSolver:  Solving for Ux, Initial residual = 0.00208739, Final residual = 9.6812e-06, No Iterations 1
smoothSolver:  Solving for Uy, Initial residual = 0.00390939, Final residual = 1.21399e-05, No Iterations 1
GAMG:  Solving for p, Initial residual = 0.00073564, Final residual = 6.32554e-05, No Iterations 3
time step continuity errors : sum local = 5.77901e-07, global = 7.34064e-08, cumulative = 1.90567e-07
ExecutionTime = 14.27 s  ClockTime = 15 s

fieldMinMax minMax write:
    min(mag(U)) = 0 in cell 36960 at location (0.000485708 0 0.05)
    max(mag(U)) = 72.85 in cell 37631 at location (0.291741 0.00156898 0.05)

Time = 0.52

smoothSolver:  Solving for Ux, Initial residual = 0.00199742, Final residual = 9.37125e-06, No Iterations 1
smoothSolver:  Solving for Uy, Initial residual = 0.00367342, Final residual = 1.15861e-05, No Iterations 1
GAMG:  Solving for p, Initial residual = 0.000719558, Final residual = 6.4847e-05, No Iterations 3
time step continuity errors : sum local = 5.92157e-07, global = 7.80187e-08, cumulative = 2.68585e-07
ExecutionTime = 14.51 s  ClockTime = 16 s

fieldMinMax minMax write:
    min(mag(U)) = 0 in cell 36960 at location (0.000485708 0 0.05)
    max(mag(U)) = 72.8926 in cell 37633 at location (0.296196 0.00156898 0.05)

Time = 0.53

smoothSolver:  Solving for Ux, Initial residual = 0.00190766, Final residual = 9.07076e-06, No Iterations 1
smoothSolver:  Solving for Uy, Initial residual = 0.0034597, Final residual = 1.10957e-05, No Iterations 1
GAMG:  Solving for p, Initial residual = 0.000704536, Final residual = 6.71313e-05, No Iterations 3
time step continuity errors : sum local = 6.12728e-07, global = 7.61729e-08, cumulative = 3.44758e-07
ExecutionTime = 14.73 s  ClockTime = 16 s

fieldMinMax minMax write:
    min(mag(U)) = 0 in cell 36960 at location (0.000485708 0 0.05)
    max(mag(U)) = 72.9326 in cell 37635 at location (0.30075 0.00156898 0.05)

Time = 0.54

smoothSolver:  Solving for Ux, Initial residual = 0.00182676, Final residual = 8.78516e-06, No Iterations 1
smoothSolver:  Solving for Uy, Initial residual = 0.00328504, Final residual = 1.06727e-05, No Iterations 1
GAMG:  Solving for p, Initial residual = 0.000687602, Final residual = 3.45994e-05, No Iterations 5
time step continuity errors : sum local = 3.15648e-07, global = 3.94811e-08, cumulative = 3.84239e-07
ExecutionTime = 15.01 s  ClockTime = 16 s

fieldMinMax minMax write:
    min(mag(U)) = 0 in cell 36960 at location (0.000485708 0 0.05)
    max(mag(U)) = 72.9701 in cell 37637 at location (0.305403 0.00156898 0.05)

Time = 0.55

smoothSolver:  Solving for Ux, Initial residual = 0.00173949, Final residual = 8.51266e-06, No Iterations 1
smoothSolver:  Solving for Uy, Initial residual = 0.00311067, Final residual = 1.02914e-05, No Iterations 1
GAMG:  Solving for p, Initial residual = 0.000646169, Final residual = 4.41413e-05, No Iterations 3
time step continuity errors : sum local = 4.01975e-07, global = 5.82873e-08, cumulative = 4.42527e-07
ExecutionTime = 15.24 s  ClockTime = 16 s

fieldMinMax minMax write:
    min(mag(U)) = 0 in cell 36960 at location (0.000485708 0 0.05)
    max(mag(U)) = 73.005 in cell 37638 at location (0.307767 0.00156898 0.05)

Time = 0.56

smoothSolver:  Solving for Ux, Initial residual = 0.00165705, Final residual = 8.19891e-06, No Iterations 1
smoothSolver:  Solving for Uy, Initial residual = 0.00296771, Final residual = 9.91322e-06, No Iterations 1
GAMG:  Solving for p, Initial residual = 0.000631667, Final residual = 5.26626e-05, No Iterations 3
time step continuity errors : sum local = 4.79617e-07, global = 4.86659e-08, cumulative = 4.91193e-07
ExecutionTime = 15.46 s  ClockTime = 17 s

fieldMinMax minMax write:
    min(mag(U)) = 0 in cell 36960 at location (0.000485708 0 0.05)
    max(mag(U)) = 73.0374 in cell 37639 at location (0.310157 0.00156898 0.05)

Time = 0.57

smoothSolver:  Solving for Ux, Initial residual = 0.00158762, Final residual = 7.92514e-06, No Iterations 1
smoothSolver:  Solving for Uy, Initial residual = 0.00282744, Final residual = 9.59948e-06, No Iterations 1
GAMG:  Solving for p, Initial residual = 0.000621942, Final residual = 3.0731e-05, No Iterations 5
time step continuity errors : sum local = 2.7991e-07, global = 2.86578e-08, cumulative = 5.1985e-07
ExecutionTime = 15.73 s  ClockTime = 17 s

fieldMinMax minMax write:
    min(mag(U)) = 0 in cell 36960 at location (0.000485708 0 0.05)
    max(mag(U)) = 73.0674 in cell 37640 at location (0.312573 0.00156898 0.05)

Time = 0.58

smoothSolver:  Solving for Ux, Initial residual = 0.00151345, Final residual = 7.66497e-06, No Iterations 1
smoothSolver:  Solving for Uy, Initial residual = 0.00273174, Final residual = 9.42952e-06, No Iterations 1
GAMG:  Solving for p, Initial residual = 0.000590595, Final residual = 4.88401e-05, No Iterations 3
time step continuity errors : sum local = 4.44144e-07, global = 5.74618e-08, cumulative = 5.77312e-07
ExecutionTime = 15.96 s  ClockTime = 17 s

fieldMinMax minMax write:
    min(mag(U)) = 0 in cell 36960 at location (0.000485708 0 0.05)
    max(mag(U)) = 73.0952 in cell 37641 at location (0.315016 0.00156898 0.05)

Time = 0.59

smoothSolver:  Solving for Ux, Initial residual = 0.00144178, Final residual = 7.38765e-06, No Iterations 1
smoothSolver:  Solving for Uy, Initial residual = 0.00262711, Final residual = 9.17154e-06, No Iterations 1
GAMG:  Solving for p, Initial residual = 0.000582957, Final residual = 2.61468e-05, No Iterations 5
time step continuity errors : sum local = 2.3781e-07, global = 2.77976e-08, cumulative = 6.0511e-07
ExecutionTime = 16.24 s  ClockTime = 17 s

fieldMinMax minMax write:
    min(mag(U)) = 0 in cell 36960 at location (0.000485708 0 0.05)
    max(mag(U)) = 73.1208 in cell 37642 at location (0.317485 0.00156898 0.05)

Time = 0.6

smoothSolver:  Solving for Ux, Initial residual = 0.00137969, Final residual = 7.12828e-06, No Iterations 1
smoothSolver:  Solving for Uy, Initial residual = 0.00254556, Final residual = 9.05901e-06, No Iterations 1
GAMG:  Solving for p, Initial residual = 0.000558484, Final residual = 4.72928e-05, No Iterations 3
time step continuity errors : sum local = 4.29743e-07, global = 3.84643e-08, cumulative = 6.43574e-07
ExecutionTime = 16.46 s  ClockTime = 18 s

fieldMinMax minMax write:
    min(mag(U)) = 0 in cell 36960 at location (0.000485708 0 0.05)
    max(mag(U)) = 73.1443 in cell 37643 at location (0.31998 0.00156898 0.05)

Time = 0.61

smoothSolver:  Solving for Ux, Initial residual = 0.00131616, Final residual = 6.86969e-06, No Iterations 1
smoothSolver:  Solving for Uy, Initial residual = 0.00247067, Final residual = 8.87121e-06, No Iterations 1
GAMG:  Solving for p, Initial residual = 0.000551057, Final residual = 2.92336e-05, No Iterations 5
time step continuity errors : sum local = 2.6566e-07, global = 4.21514e-08, cumulative = 6.85726e-07
ExecutionTime = 16.74 s  ClockTime = 18 s

fieldMinMax minMax write:
    min(mag(U)) = 0 in cell 36960 at location (0.000485708 0 0.05)
    max(mag(U)) = 73.1658 in cell 37644 at location (0.322503 0.00156898 0.05)

Time = 0.62

smoothSolver:  Solving for Ux, Initial residual = 0.00125505, Final residual = 6.61073e-06, No Iterations 1
smoothSolver:  Solving for Uy, Initial residual = 0.00242004, Final residual = 8.83749e-06, No Iterations 1
GAMG:  Solving for p, Initial residual = 0.000530413, Final residual = 4.88313e-05, No Iterations 3
time step continuity errors : sum local = 4.43135e-07, global = 4.16959e-08, cumulative = 7.27421e-07
ExecutionTime = 16.97 s  ClockTime = 18 s

fieldMinMax minMax write:
    min(mag(U)) = 0 in cell 36960 at location (0.000485708 0 0.05)
    max(mag(U)) = 73.1856 in cell 37644 at location (0.322503 0.00156898 0.05)

Time = 0.63

smoothSolver:  Solving for Ux, Initial residual = 0.00119888, Final residual = 6.37317e-06, No Iterations 1
smoothSolver:  Solving for Uy, Initial residual = 0.00237863, Final residual = 8.73662e-06, No Iterations 1
GAMG:  Solving for p, Initial residual = 0.000525849, Final residual = 2.91964e-05, No Iterations 5
time step continuity errors : sum local = 2.64947e-07, global = 4.24015e-08, cumulative = 7.69823e-07
ExecutionTime = 17.25 s  ClockTime = 18 s

fieldMinMax minMax write:
    min(mag(U)) = 0 in cell 36960 at location (0.000485708 0 0.05)
    max(mag(U)) = 73.2037 in cell 37645 at location (0.325053 0.00156898 0.05)

Time = 0.64

smoothSolver:  Solving for Ux, Initial residual = 0.0011435, Final residual = 6.12362e-06, No Iterations 1
smoothSolver:  Solving for Uy, Initial residual = 0.00236829, Final residual = 8.78366e-06, No Iterations 1
GAMG:  Solving for p, Initial residual = 0.000505851, Final residual = 4.86406e-05, No Iterations 3
time step continuity errors : sum local = 4.4074e-07, global = 3.52548e-08, cumulative = 8.05078e-07
ExecutionTime = 17.48 s  ClockTime = 19 s

fieldMinMax minMax write:
    min(mag(U)) = 0 in cell 36960 at location (0.000485708 0 0.05)
    max(mag(U)) = 73.2202 in cell 37645 at location (0.325053 0.00156898 0.05)

Time = 0.65

smoothSolver:  Solving for Ux, Initial residual = 0.00109602, Final residual = 5.9119e-06, No Iterations 1
smoothSolver:  Solving for Uy, Initial residual = 0.00234513, Final residual = 8.70403e-06, No Iterations 1
GAMG:  Solving for p, Initial residual = 0.000500989, Final residual = 2.89149e-05, No Iterations 5
time step continuity errors : sum local = 2.62016e-07, global = 4.1729e-08, cumulative = 8.46807e-07
ExecutionTime = 17.75 s  ClockTime = 19 s

fieldMinMax minMax write:
    min(mag(U)) = 0 in cell 36960 at location (0.000485708 0 0.05)
    max(mag(U)) = 73.2351 in cell 37646 at location (0.327632 0.00156898 0.05)

Time = 0.66

smoothSolver:  Solving for Ux, Initial residual = 0.00105175, Final residual = 5.70286e-06, No Iterations 1
smoothSolver:  Solving for Uy, Initial residual = 0.00236895, Final residual = 8.80663e-06, No Iterations 1
GAMG:  Solving for p, Initial residual = 0.000483042, Final residual = 4.7784e-05, No Iterations 3
time step continuity errors : sum local = 4.32348e-07, global = 3.70473e-08, cumulative = 8.83854e-07
ExecutionTime = 17.98 s  ClockTime = 19 s

fieldMinMax minMax write:
    min(mag(U)) = 0 in cell 36960 at location (0.000485708 0 0.05)
    max(mag(U)) = 73.2488 in cell 37646 at location (0.327632 0.00156898 0.05)

Time = 0.67

smoothSolver:  Solving for Ux, Initial residual = 0.00101598, Final residual = 5.54888e-06, No Iterations 1
smoothSolver:  Solving for Uy, Initial residual = 0.00235686, Final residual = 8.74895e-06, No Iterations 1
GAMG:  Solving for p, Initial residual = 0.00047847, Final residual = 2.79791e-05, No Iterations 5
time step continuity errors : sum local = 2.53159e-07, global = 3.29252e-08, cumulative = 9.16779e-07
ExecutionTime = 18.25 s  ClockTime = 19 s

fieldMinMax minMax write:
    min(mag(U)) = 0 in cell 36960 at location (0.000485708 0 0.05)
    max(mag(U)) = 73.2611 in cell 37646 at location (0.327632 0.00156898 0.05)

Time = 0.68

smoothSolver:  Solving for Ux, Initial residual = 0.000986959, Final residual = 5.36943e-06, No Iterations 1
smoothSolver:  Solving for Uy, Initial residual = 0.00238404, Final residual = 8.82649e-06, No Iterations 1
GAMG:  Solving for p, Initial residual = 0.000463523, Final residual = 2.31371e-05, No Iterations 5
time step continuity errors : sum local = 2.09025e-07, global = 2.05814e-08, cumulative = 9.37361e-07
ExecutionTime = 18.53 s  ClockTime = 20 s

fieldMinMax minMax write:
    min(mag(U)) = 0 in cell 36960 at location (0.000485708 0 0.05)
    max(mag(U)) = 73.2723 in cell 37647 at location (0.330238 0.00156898 0.05)

Time = 0.69

smoothSolver:  Solving for Ux, Initial residual = 0.000956968, Final residual = 5.21839e-06, No Iterations 1
smoothSolver:  Solving for Uy, Initial residual = 0.00237408, Final residual = 8.77375e-06, No Iterations 1
GAMG:  Solving for p, Initial residual = 0.000449246, Final residual = 2.28394e-05, No Iterations 5
time step continuity errors : sum local = 2.0618e-07, global = 1.75839e-08, cumulative = 9.54945e-07
ExecutionTime = 18.81 s  ClockTime = 20 s

fieldMinMax minMax write:
    min(mag(U)) = 0 in cell 36960 at location (0.000485708 0 0.05)
    max(mag(U)) = 73.2824 in cell 37647 at location (0.330238 0.00156898 0.05)

Time = 0.7

smoothSolver:  Solving for Ux, Initial residual = 0.000932755, Final residual = 5.0765e-06, No Iterations 1
smoothSolver:  Solving for Uy, Initial residual = 0.00238071, Final residual = 8.77528e-06, No Iterations 1
GAMG:  Solving for p, Initial residual = 0.000438431, Final residual = 2.34342e-05, No Iterations 5
time step continuity errors : sum local = 2.11435e-07, global = 1.88901e-08, cumulative = 9.73835e-07
ExecutionTime = 19.08 s  ClockTime = 20 s

fieldMinMax minMax write:
    min(mag(U)) = 0 in cell 36960 at location (0.000485708 0 0.05)
    max(mag(U)) = 73.2915 in cell 37647 at location (0.330238 0.00156898 0.05)

Time = 0.71

smoothSolver:  Solving for Ux, Initial residual = 0.000909461, Final residual = 4.93183e-06, No Iterations 1
smoothSolver:  Solving for Uy, Initial residual = 0.0023903, Final residual = 8.76922e-06, No Iterations 1
GAMG:  Solving for p, Initial residual = 0.000430631, Final residual = 2.20773e-05, No Iterations 5
time step continuity errors : sum local = 1.99071e-07, global = 1.44958e-08, cumulative = 9.88331e-07
ExecutionTime = 19.35 s  ClockTime = 21 s

fieldMinMax minMax write:
    min(mag(U)) = 0 in cell 36960 at location (0.000485708 0 0.05)
    max(mag(U)) = 73.2997 in cell 37647 at location (0.330238 0.00156898 0.05)

Time = 0.72

smoothSolver:  Solving for Ux, Initial residual = 0.000885413, Final residual = 4.78728e-06, No Iterations 1
smoothSolver:  Solving for Uy, Initial residual = 0.00239265, Final residual = 8.74367e-06, No Iterations 1
GAMG:  Solving for p, Initial residual = 0.000423238, Final residual = 2.36112e-05, No Iterations 5
time step continuity errors : sum local = 2.1277e-07, global = 1.93607e-08, cumulative = 1.00769e-06
ExecutionTime = 19.62 s  ClockTime = 21 s

fieldMinMax minMax write:
    min(mag(U)) = 0 in cell 36960 at location (0.000485708 0 0.05)
    max(mag(U)) = 73.307 in cell 37647 at location (0.330238 0.00156898 0.05)

Time = 0.73

smoothSolver:  Solving for Ux, Initial residual = 0.000860722, Final residual = 4.64501e-06, No Iterations 1
smoothSolver:  Solving for Uy, Initial residual = 0.00239011, Final residual = 8.7009e-06, No Iterations 1
GAMG:  Solving for p, Initial residual = 0.000416843, Final residual = 2.3472e-05, No Iterations 5
time step continuity errors : sum local = 2.11377e-07, global = 2.04404e-08, cumulative = 1.02813e-06
ExecutionTime = 19.89 s  ClockTime = 21 s

fieldMinMax minMax write:
    min(mag(U)) = 0 in cell 36960 at location (0.000485708 0 0.05)
    max(mag(U)) = 73.3137 in cell 37648 at location (0.332872 0.00156898 0.05)

Time = 0.74

smoothSolver:  Solving for Ux, Initial residual = 0.000836507, Final residual = 4.50631e-06, No Iterations 1
smoothSolver:  Solving for Uy, Initial residual = 0.00238976, Final residual = 8.65785e-06, No Iterations 1
GAMG:  Solving for p, Initial residual = 0.000410468, Final residual = 2.27841e-05, No Iterations 5
time step continuity errors : sum local = 2.05017e-07, global = 2.01384e-08, cumulative = 1.04827e-06
ExecutionTime = 20.16 s  ClockTime = 21 s

fieldMinMax minMax write:
    min(mag(U)) = 0 in cell 36960 at location (0.000485708 0 0.05)
    max(mag(U)) = 73.3196 in cell 37648 at location (0.332872 0.00156898 0.05)

Time = 0.75

smoothSolver:  Solving for Ux, Initial residual = 0.000811947, Final residual = 4.36701e-06, No Iterations 1
smoothSolver:  Solving for Uy, Initial residual = 0.00238259, Final residual = 8.5892e-06, No Iterations 1
GAMG:  Solving for p, Initial residual = 0.000404195, Final residual = 2.25356e-05, No Iterations 5
time step continuity errors : sum local = 2.02603e-07, global = 2.06269e-08, cumulative = 1.0689e-06
ExecutionTime = 20.45 s  ClockTime = 22 s

fieldMinMax minMax write:
    min(mag(U)) = 0 in cell 36960 at location (0.000485708 0 0.05)
    max(mag(U)) = 73.3249 in cell 37648 at location (0.332872 0.00156898 0.05)

Time = 0.76

smoothSolver:  Solving for Ux, Initial residual = 0.000787171, Final residual = 4.23245e-06, No Iterations 1
smoothSolver:  Solving for Uy, Initial residual = 0.00237144, Final residual = 8.50941e-06, No Iterations 1
GAMG:  Solving for p, Initial residual = 0.000397087, Final residual = 2.3437e-05, No Iterations 5
time step continuity errors : sum local = 2.10539e-07, global = 2.06208e-08, cumulative = 1.08952e-06
ExecutionTime = 20.72 s  ClockTime = 22 s

fieldMinMax minMax write:
    min(mag(U)) = 0 in cell 36960 at location (0.000485708 0 0.05)
    max(mag(U)) = 73.3296 in cell 37648 at location (0.332872 0.00156898 0.05)

Time = 0.77

smoothSolver:  Solving for Ux, Initial residual = 0.00076285, Final residual = 4.10036e-06, No Iterations 1
smoothSolver:  Solving for Uy, Initial residual = 0.00235628, Final residual = 8.41437e-06, No Iterations 1
GAMG:  Solving for p, Initial residual = 0.000391723, Final residual = 3.91073e-05, No Iterations 4
time step continuity errors : sum local = 3.51066e-07, global = 8.75657e-09, cumulative = 1.09827e-06
ExecutionTime = 20.97 s  ClockTime = 22 s

fieldMinMax minMax write:
    min(mag(U)) = 0 in cell 36960 at location (0.000485708 0 0.05)
    max(mag(U)) = 73.3338 in cell 37648 at location (0.332872 0.00156898 0.05)

Time = 0.78

smoothSolver:  Solving for Ux, Initial residual = 0.000739408, Final residual = 3.97336e-06, No Iterations 1
smoothSolver:  Solving for Uy, Initial residual = 0.0023381, Final residual = 8.3118e-06, No Iterations 1
GAMG:  Solving for p, Initial residual = 0.000395999, Final residual = 2.5757e-05, No Iterations 5
time step continuity errors : sum local = 2.3108e-07, global = 2.63172e-08, cumulative = 1.12459e-06
ExecutionTime = 21.23 s  ClockTime = 23 s

fieldMinMax minMax write:
    min(mag(U)) = 0 in cell 36960 at location (0.000485708 0 0.05)
    max(mag(U)) = 73.3375 in cell 37648 at location (0.332872 0.00156898 0.05)

Time = 0.79

smoothSolver:  Solving for Ux, Initial residual = 0.000716063, Final residual = 3.84646e-06, No Iterations 1
smoothSolver:  Solving for Uy, Initial residual = 0.00231533, Final residual = 8.19517e-06, No Iterations 1
GAMG:  Solving for p, Initial residual = 0.00038605, Final residual = 2.2477e-05, No Iterations 5
time step continuity errors : sum local = 2.01508e-07, global = 1.96224e-08, cumulative = 1.14421e-06
ExecutionTime = 21.5 s  ClockTime = 23 s

fieldMinMax minMax write:
    min(mag(U)) = 0 in cell 36960 at location (0.000485708 0 0.05)
    max(mag(U)) = 73.3408 in cell 37648 at location (0.332872 0.00156898 0.05)

Time = 0.8

smoothSolver:  Solving for Ux, Initial residual = 0.000692362, Final residual = 3.72537e-06, No Iterations 1
smoothSolver:  Solving for Uy, Initial residual = 0.00229391, Final residual = 8.08812e-06, No Iterations 1
GAMG:  Solving for p, Initial residual = 0.000377068, Final residual = 2.19616e-05, No Iterations 5
time step continuity errors : sum local = 1.96701e-07, global = 1.9192e-08, cumulative = 1.16341e-06
ExecutionTime = 21.77 s  ClockTime = 23 s

fieldMinMax minMax write:
    min(mag(U)) = 0 in cell 36960 at location (0.000485708 0 0.05)
    max(mag(U)) = 73.3437 in cell 37649 at location (0.335535 0.00156898 0.05)

Time = 0.81

smoothSolver:  Solving for Ux, Initial residual = 0.000668863, Final residual = 3.60965e-06, No Iterations 1
smoothSolver:  Solving for Uy, Initial residual = 0.00226179, Final residual = 7.95226e-06, No Iterations 1
GAMG:  Solving for p, Initial residual = 0.000369039, Final residual = 2.26141e-05, No Iterations 5
time step continuity errors : sum local = 2.02406e-07, global = 2.26979e-08, cumulative = 1.1861e-06
ExecutionTime = 22.04 s  ClockTime = 23 s

fieldMinMax minMax write:
    min(mag(U)) = 0 in cell 36960 at location (0.000485708 0 0.05)
    max(mag(U)) = 73.3463 in cell 37649 at location (0.335535 0.00156898 0.05)

Time = 0.82

smoothSolver:  Solving for Ux, Initial residual = 0.0006465, Final residual = 3.49692e-06, No Iterations 1
smoothSolver:  Solving for Uy, Initial residual = 0.00222608, Final residual = 7.80211e-06, No Iterations 1
GAMG:  Solving for p, Initial residual = 0.000363067, Final residual = 3.39176e-05, No Iterations 4
time step continuity errors : sum local = 3.03404e-07, global = 2.82765e-08, cumulative = 1.21438e-06
ExecutionTime = 22.28 s  ClockTime = 24 s

fieldMinMax minMax write:
    min(mag(U)) = 0 in cell 36960 at location (0.000485708 0 0.05)
    max(mag(U)) = 73.3486 in cell 37649 at location (0.335535 0.00156898 0.05)

Time = 0.83

smoothSolver:  Solving for Ux, Initial residual = 0.000624527, Final residual = 3.38817e-06, No Iterations 1
smoothSolver:  Solving for Uy, Initial residual = 0.00218754, Final residual = 7.64739e-06, No Iterations 1
GAMG:  Solving for p, Initial residual = 0.000365313, Final residual = 2.20562e-05, No Iterations 5
time step continuity errors : sum local = 1.97223e-07, global = 1.78003e-08, cumulative = 1.23218e-06
ExecutionTime = 22.55 s  ClockTime = 24 s

fieldMinMax minMax write:
    min(mag(U)) = 0 in cell 36960 at location (0.000485708 0 0.05)
    max(mag(U)) = 73.3506 in cell 37649 at location (0.335535 0.00156898 0.05)

Time = 0.84

smoothSolver:  Solving for Ux, Initial residual = 0.000603354, Final residual = 3.28321e-06, No Iterations 1
smoothSolver:  Solving for Uy, Initial residual = 0.00214873, Final residual = 7.48825e-06, No Iterations 1
GAMG:  Solving for p, Initial residual = 0.000356996, Final residual = 2.18491e-05, No Iterations 5
time step continuity errors : sum local = 1.95206e-07, global = 1.74168e-08, cumulative = 1.2496e-06
ExecutionTime = 22.81 s  ClockTime = 24 s

fieldMinMax minMax write:
    min(mag(U)) = 0 in cell 36960 at location (0.000485708 0 0.05)
    max(mag(U)) = 73.3524 in cell 37649 at location (0.335535 0.00156898 0.05)

Time = 0.85

smoothSolver:  Solving for Ux, Initial residual = 0.000581496, Final residual = 3.18698e-06, No Iterations 1
smoothSolver:  Solving for Uy, Initial residual = 0.00210879, Final residual = 7.34253e-06, No Iterations 1
GAMG:  Solving for p, Initial residual = 0.000348919, Final residual = 2.30273e-05, No Iterations 5
time step continuity errors : sum local = 2.0559e-07, global = 1.77323e-08, cumulative = 1.26733e-06
ExecutionTime = 23.08 s  ClockTime = 24 s

fieldMinMax minMax write:
    min(mag(U)) = 0 in cell 36960 at location (0.000485708 0 0.05)
    max(mag(U)) = 73.3539 in cell 37649 at location (0.335535 0.00156898 0.05)

Time = 0.86

smoothSolver:  Solving for Ux, Initial residual = 0.000561519, Final residual = 3.09524e-06, No Iterations 1
smoothSolver:  Solving for Uy, Initial residual = 0.00206435, Final residual = 7.17551e-06, No Iterations 1
GAMG:  Solving for p, Initial residual = 0.000342802, Final residual = 3.11964e-05, No Iterations 4
time step continuity errors : sum local = 2.78366e-07, global = 1.4955e-08, cumulative = 1.28228e-06
ExecutionTime = 23.32 s  ClockTime = 25 s

fieldMinMax minMax write:
    min(mag(U)) = 0 in cell 36960 at location (0.000485708 0 0.05)
    max(mag(U)) = 73.3553 in cell 37649 at location (0.335535 0.00156898 0.05)

Time = 0.87

smoothSolver:  Solving for Ux, Initial residual = 0.000541979, Final residual = 3.00365e-06, No Iterations 1
smoothSolver:  Solving for Uy, Initial residual = 0.00201561, Final residual = 7.00006e-06, No Iterations 1
GAMG:  Solving for p, Initial residual = 0.000343918, Final residual = 2.08129e-05, No Iterations 5
time step continuity errors : sum local = 1.8564e-07, global = 1.8374e-08, cumulative = 1.30066e-06
ExecutionTime = 23.59 s  ClockTime = 25 s

fieldMinMax minMax write:
    min(mag(U)) = 0 in cell 36960 at location (0.000485708 0 0.05)
    max(mag(U)) = 73.3565 in cell 37649 at location (0.335535 0.00156898 0.05)

Time = 0.88

smoothSolver:  Solving for Ux, Initial residual = 0.000522567, Final residual = 2.91591e-06, No Iterations 1
smoothSolver:  Solving for Uy, Initial residual = 0.00196484, Final residual = 6.81474e-06, No Iterations 1
GAMG:  Solving for p, Initial residual = 0.00033582, Final residual = 2.0119e-05, No Iterations 5
time step continuity errors : sum local = 1.79333e-07, global = 1.67856e-08, cumulative = 1.31744e-06
ExecutionTime = 23.86 s  ClockTime = 25 s

fieldMinMax minMax write:
    min(mag(U)) = 0 in cell 36960 at location (0.000485708 0 0.05)
    max(mag(U)) = 73.3575 in cell 37649 at location (0.335535 0.00156898 0.05)

Time = 0.89

smoothSolver:  Solving for Ux, Initial residual = 0.000503747, Final residual = 2.83596e-06, No Iterations 1
smoothSolver:  Solving for Uy, Initial residual = 0.00191787, Final residual = 6.65661e-06, No Iterations 1
GAMG:  Solving for p, Initial residual = 0.000328165, Final residual = 3.06466e-05, No Iterations 4
time step continuity errors : sum local = 2.73014e-07, global = 1.32187e-08, cumulative = 1.33066e-06
ExecutionTime = 24.11 s  ClockTime = 25 s

fieldMinMax minMax write:
    min(mag(U)) = 0 in cell 36960 at location (0.000485708 0 0.05)
    max(mag(U)) = 73.3584 in cell 37649 at location (0.335535 0.00156898 0.05)

Time = 0.9

smoothSolver:  Solving for Ux, Initial residual = 0.000486069, Final residual = 2.75465e-06, No Iterations 1
smoothSolver:  Solving for Uy, Initial residual = 0.00186461, Final residual = 6.47385e-06, No Iterations 1
GAMG:  Solving for p, Initial residual = 0.000330136, Final residual = 1.95415e-05, No Iterations 5
time step continuity errors : sum local = 1.74021e-07, global = 1.70019e-08, cumulative = 1.34766e-06
ExecutionTime = 24.37 s  ClockTime = 26 s

fieldMinMax minMax write:
    min(mag(U)) = 0 in cell 36960 at location (0.000485708 0 0.05)
    max(mag(U)) = 73.3592 in cell 37649 at location (0.335535 0.00156898 0.05)

Time = 0.91

smoothSolver:  Solving for Ux, Initial residual = 0.000468608, Final residual = 2.67514e-06, No Iterations 1
smoothSolver:  Solving for Uy, Initial residual = 0.00180808, Final residual = 6.28057e-06, No Iterations 1
GAMG:  Solving for p, Initial residual = 0.000320053, Final residual = 1.8271e-05, No Iterations 5
time step continuity errors : sum local = 1.62623e-07, global = 1.5166e-08, cumulative = 1.36283e-06
ExecutionTime = 24.65 s  ClockTime = 26 s

fieldMinMax minMax write:
    min(mag(U)) = 0 in cell 36960 at location (0.000485708 0 0.05)
    max(mag(U)) = 73.3599 in cell 37649 at location (0.335535 0.00156898 0.05)

Time = 0.92

smoothSolver:  Solving for Ux, Initial residual = 0.000451296, Final residual = 2.5971e-06, No Iterations 1
smoothSolver:  Solving for Uy, Initial residual = 0.00175375, Final residual = 6.10247e-06, No Iterations 1
GAMG:  Solving for p, Initial residual = 0.000313111, Final residual = 2.8047e-05, No Iterations 4
time step continuity errors : sum local = 2.49509e-07, global = 1.36902e-08, cumulative = 1.37652e-06
ExecutionTime = 24.89 s  ClockTime = 26 s

fieldMinMax minMax write:
    min(mag(U)) = 0 in cell 36960 at location (0.000485708 0 0.05)
    max(mag(U)) = 73.3605 in cell 37649 at location (0.335535 0.00156898 0.05)

Time = 0.93

smoothSolver:  Solving for Ux, Initial residual = 0.000435349, Final residual = 2.52134e-06, No Iterations 1
smoothSolver:  Solving for Uy, Initial residual = 0.00169799, Final residual = 5.91902e-06, No Iterations 1
GAMG:  Solving for p, Initial residual = 0.000314771, Final residual = 1.77864e-05, No Iterations 5
time step continuity errors : sum local = 1.58184e-07, global = 1.53218e-08, cumulative = 1.39184e-06
ExecutionTime = 25.16 s  ClockTime = 27 s

fieldMinMax minMax write:
    min(mag(U)) = 0 in cell 36960 at location (0.000485708 0 0.05)
    max(mag(U)) = 73.361 in cell 37649 at location (0.335535 0.00156898 0.05)

Time = 0.94

smoothSolver:  Solving for Ux, Initial residual = 0.000420024, Final residual = 2.4472e-06, No Iterations 1
smoothSolver:  Solving for Uy, Initial residual = 0.00163925, Final residual = 5.7237e-06, No Iterations 1
GAMG:  Solving for p, Initial residual = 0.000305425, Final residual = 1.6423e-05, No Iterations 5
time step continuity errors : sum local = 1.46003e-07, global = 1.35461e-08, cumulative = 1.40539e-06
ExecutionTime = 25.43 s  ClockTime = 27 s

fieldMinMax minMax write:
    min(mag(U)) = 0 in cell 36960 at location (0.000485708 0 0.05)
    max(mag(U)) = 73.3614 in cell 37649 at location (0.335535 0.00156898 0.05)

Time = 0.95

smoothSolver:  Solving for Ux, Initial residual = 0.000404244, Final residual = 2.37346e-06, No Iterations 1
smoothSolver:  Solving for Uy, Initial residual = 0.00158253, Final residual = 5.54141e-06, No Iterations 1
GAMG:  Solving for p, Initial residual = 0.000297411, Final residual = 2.8057e-05, No Iterations 4
time step continuity errors : sum local = 2.49328e-07, global = 1.42617e-08, cumulative = 1.41965e-06
ExecutionTime = 25.67 s  ClockTime = 27 s

fieldMinMax minMax write:
    min(mag(U)) = 0 in cell 36960 at location (0.000485708 0 0.05)
    max(mag(U)) = 73.3618 in cell 37649 at location (0.335535 0.00156898 0.05)

Time = 0.96

smoothSolver:  Solving for Ux, Initial residual = 0.000390133, Final residual = 2.30271e-06, No Iterations 1
smoothSolver:  Solving for Uy, Initial residual = 0.00152559, Final residual = 5.36088e-06, No Iterations 1
GAMG:  Solving for p, Initial residual = 0.000300814, Final residual = 1.633e-05, No Iterations 5
time step continuity errors : sum local = 1.45087e-07, global = 1.36609e-08, cumulative = 1.43331e-06
ExecutionTime = 25.95 s  ClockTime = 27 s

fieldMinMax minMax write:
    min(mag(U)) = 0 in cell 36960 at location (0.000485708 0 0.05)
    max(mag(U)) = 73.3621 in cell 37649 at location (0.335535 0.00156898 0.05)

Time = 0.97

smoothSolver:  Solving for Ux, Initial residual = 0.000376071, Final residual = 2.23487e-06, No Iterations 1
smoothSolver:  Solving for Uy, Initial residual = 0.00146645, Final residual = 5.16587e-06, No Iterations 1
GAMG:  Solving for p, Initial residual = 0.000288603, Final residual = 1.57754e-05, No Iterations 5
time step continuity errors : sum local = 1.40114e-07, global = 1.27526e-08, cumulative = 1.44606e-06
ExecutionTime = 26.22 s  ClockTime = 28 s

fieldMinMax minMax write:
    min(mag(U)) = 0 in cell 36960 at location (0.000485708 0 0.05)
    max(mag(U)) = 73.3624 in cell 37649 at location (0.335535 0.00156898 0.05)

Time = 0.98

smoothSolver:  Solving for Ux, Initial residual = 0.000362153, Final residual = 2.16763e-06, No Iterations 1
smoothSolver:  Solving for Uy, Initial residual = 0.00141043, Final residual = 4.98904e-06, No Iterations 1
GAMG:  Solving for p, Initial residual = 0.000280549, Final residual = 2.66569e-05, No Iterations 4
time step continuity errors : sum local = 2.36692e-07, global = 1.34699e-08, cumulative = 1.45953e-06
ExecutionTime = 26.47 s  ClockTime = 28 s

fieldMinMax minMax write:
    min(mag(U)) = 0 in cell 36960 at location (0.000485708 0 0.05)
    max(mag(U)) = 73.3626 in cell 37649 at location (0.335535 0.00156898 0.05)

Time = 0.99

smoothSolver:  Solving for Ux, Initial residual = 0.000349146, Final residual = 2.10024e-06, No Iterations 1
smoothSolver:  Solving for Uy, Initial residual = 0.00135266, Final residual = 4.80929e-06, No Iterations 1
GAMG:  Solving for p, Initial residual = 0.00028327, Final residual = 1.58923e-05, No Iterations 5
time step continuity errors : sum local = 1.41088e-07, global = 1.28851e-08, cumulative = 1.47242e-06
ExecutionTime = 26.74 s  ClockTime = 28 s

fieldMinMax minMax write:
    min(mag(U)) = 0 in cell 36960 at location (0.000485708 0 0.05)
    max(mag(U)) = 73.3629 in cell 37649 at location (0.335535 0.00156898 0.05)

Time = 1

smoothSolver:  Solving for Ux, Initial residual = 0.00033665, Final residual = 2.03683e-06, No Iterations 1
smoothSolver:  Solving for Uy, Initial residual = 0.00129503, Final residual = 4.62179e-06, No Iterations 1
GAMG:  Solving for p, Initial residual = 0.000271892, Final residual = 1.45057e-05, No Iterations 5
time step continuity errors : sum local = 1.2875e-07, global = 1.19799e-08, cumulative = 1.4844e-06
ExecutionTime = 27.35 s  ClockTime = 29 s

fieldMinMax minMax write:
    min(mag(U)) = 0 in cell 36960 at location (0.000485708 0 0.05)
    max(mag(U)) = 73.363 in cell 37649 at location (0.335535 0.00156898 0.05)

yPlus yPlus write:
    writing field yPlus
    patch topWall y+ : min = 0.011147, max = 0.137952, average = 0.10858
    patch bottomWall y+ : min = 25.5766, max = 51.0719, average = 41.4101
writeCellCentres writeCellCentres write:
    writing cell-volumes field C to 1
    Writing the x component field of the cell-centres Cx to 1
    Writing the y component field of the cell-centres Cy to 1
    Writing the z component field of the cell-centres Cz to 1
wallShearStress wallShearStress write:
    writing field wallShearStress
    min/max(topWall) = (-9.44015e-10 -1.07535e-06 0), (1.96187e-09 -7.34101e-09 0)
    min/max(bottomWall) = (-1.84248 -0.00283527 0), (-0.462046 0.000172226 0)
Time = 1.01

smoothSolver:  Solving for Ux, Initial residual = 0.000323961, Final residual = 1.97313e-06, No Iterations 1
smoothSolver:  Solving for Uy, Initial residual = 0.00123966, Final residual = 4.44848e-06, No Iterations 1
GAMG:  Solving for p, Initial residual = 0.000264431, Final residual = 2.37328e-05, No Iterations 4
time step continuity errors : sum local = 2.10597e-07, global = 1.19807e-08, cumulative = 1.49638e-06
ExecutionTime = 28.02 s  ClockTime = 30 s

fieldMinMax minMax write:
    min(mag(U)) = 0 in cell 36960 at location (0.000485708 0 0.05)
    max(mag(U)) = 73.3632 in cell 37649 at location (0.335535 0.00156898 0.05)

Time = 1.02

smoothSolver:  Solving for Ux, Initial residual = 0.000311794, Final residual = 1.90985e-06, No Iterations 1
smoothSolver:  Solving for Uy, Initial residual = 0.00118352, Final residual = 4.27457e-06, No Iterations 1
GAMG:  Solving for p, Initial residual = 0.000264481, Final residual = 1.44278e-05, No Iterations 5
time step continuity errors : sum local = 1.28012e-07, global = 1.1448e-08, cumulative = 1.50783e-06
ExecutionTime = 28.3 s  ClockTime = 30 s

fieldMinMax minMax write:
    min(mag(U)) = 0 in cell 36960 at location (0.000485708 0 0.05)
    max(mag(U)) = 73.3633 in cell 37649 at location (0.335535 0.00156898 0.05)

Time = 1.03

smoothSolver:  Solving for Ux, Initial residual = 0.000300053, Final residual = 1.84744e-06, No Iterations 1
smoothSolver:  Solving for Uy, Initial residual = 0.00112807, Final residual = 4.09657e-06, No Iterations 1
GAMG:  Solving for p, Initial residual = 0.000255831, Final residual = 2.41013e-05, No Iterations 4
time step continuity errors : sum local = 2.13808e-07, global = 1.11419e-08, cumulative = 1.51897e-06
ExecutionTime = 28.59 s  ClockTime = 31 s

fieldMinMax minMax write:
    min(mag(U)) = 0 in cell 36960 at location (0.000485708 0 0.05)
    max(mag(U)) = 73.3634 in cell 37649 at location (0.335535 0.00156898 0.05)

Time = 1.04

smoothSolver:  Solving for Ux, Initial residual = 0.000288528, Final residual = 1.78755e-06, No Iterations 1
smoothSolver:  Solving for Uy, Initial residual = 0.00107448, Final residual = 3.93125e-06, No Iterations 1
GAMG:  Solving for p, Initial residual = 0.000254626, Final residual = 1.35438e-05, No Iterations 5
time step continuity errors : sum local = 1.20136e-07, global = 1.05901e-08, cumulative = 1.52956e-06
ExecutionTime = 28.94 s  ClockTime = 31 s

fieldMinMax minMax write:
    min(mag(U)) = 0 in cell 36960 at location (0.000485708 0 0.05)
    max(mag(U)) = 73.3636 in cell 37649 at location (0.335535 0.00156898 0.05)

Time = 1.05

smoothSolver:  Solving for Ux, Initial residual = 0.000277176, Final residual = 1.72671e-06, No Iterations 1
smoothSolver:  Solving for Uy, Initial residual = 0.00102228, Final residual = 3.76534e-06, No Iterations 1
GAMG:  Solving for p, Initial residual = 0.000246492, Final residual = 2.34833e-05, No Iterations 4
time step continuity errors : sum local = 2.08274e-07, global = 9.83412e-09, cumulative = 1.53939e-06
ExecutionTime = 29.2 s  ClockTime = 31 s

fieldMinMax minMax write:
    min(mag(U)) = 0 in cell 36960 at location (0.000485708 0 0.05)
    max(mag(U)) = 73.3636 in cell 37649 at location (0.335535 0.00156898 0.05)

Time = 1.06

smoothSolver:  Solving for Ux, Initial residual = 0.000266312, Final residual = 1.66905e-06, No Iterations 1
smoothSolver:  Solving for Uy, Initial residual = 0.000971444, Final residual = 3.60617e-06, No Iterations 1
GAMG:  Solving for p, Initial residual = 0.000244686, Final residual = 1.25188e-05, No Iterations 5
time step continuity errors : sum local = 1.11022e-07, global = 9.70411e-09, cumulative = 1.5491e-06
ExecutionTime = 29.49 s  ClockTime = 31 s

fieldMinMax minMax write:
    min(mag(U)) = 0 in cell 36960 at location (0.000485708 0 0.05)
    max(mag(U)) = 73.3637 in cell 37649 at location (0.335535 0.00156898 0.05)

Time = 1.07

smoothSolver:  Solving for Ux, Initial residual = 0.000255582, Final residual = 1.61011e-06, No Iterations 1
smoothSolver:  Solving for Uy, Initial residual = 0.000921302, Final residual = 3.44808e-06, No Iterations 1
GAMG:  Solving for p, Initial residual = 0.000236066, Final residual = 2.30907e-05, No Iterations 4
time step continuity errors : sum local = 2.04761e-07, global = 8.61184e-09, cumulative = 1.55771e-06
ExecutionTime = 29.8 s  ClockTime = 32 s

fieldMinMax minMax write:
    min(mag(U)) = 0 in cell 36960 at location (0.000485708 0 0.05)
    max(mag(U)) = 73.3638 in cell 37649 at location (0.335535 0.00156898 0.05)

Time = 1.08

smoothSolver:  Solving for Ux, Initial residual = 0.000244997, Final residual = 1.55349e-06, No Iterations 1
smoothSolver:  Solving for Uy, Initial residual = 0.000873651, Final residual = 3.29651e-06, No Iterations 1
GAMG:  Solving for p, Initial residual = 0.000234953, Final residual = 1.21677e-05, No Iterations 5
time step continuity errors : sum local = 1.07895e-07, global = 8.9668e-09, cumulative = 1.56668e-06
ExecutionTime = 30.09 s  ClockTime = 32 s

fieldMinMax minMax write:
    min(mag(U)) = 0 in cell 36960 at location (0.000485708 0 0.05)
    max(mag(U)) = 73.3638 in cell 37649 at location (0.335535 0.00156898 0.05)

Time = 1.09

smoothSolver:  Solving for Ux, Initial residual = 0.000235133, Final residual = 1.49779e-06, No Iterations 1
smoothSolver:  Solving for Uy, Initial residual = 0.00082663, Final residual = 3.14882e-06, No Iterations 1
GAMG:  Solving for p, Initial residual = 0.000225298, Final residual = 2.2053e-05, No Iterations 4
time step continuity errors : sum local = 1.95541e-07, global = 7.6959e-09, cumulative = 1.57437e-06
ExecutionTime = 30.34 s  ClockTime = 32 s

fieldMinMax minMax write:
    min(mag(U)) = 0 in cell 36960 at location (0.000485708 0 0.05)
    max(mag(U)) = 73.3639 in cell 37649 at location (0.335535 0.00156898 0.05)

Time = 1.1

smoothSolver:  Solving for Ux, Initial residual = 0.000224708, Final residual = 1.4422e-06, No Iterations 1
smoothSolver:  Solving for Uy, Initial residual = 0.000782274, Final residual = 3.00606e-06, No Iterations 1
GAMG:  Solving for p, Initial residual = 0.000223831, Final residual = 1.17186e-05, No Iterations 5
time step continuity errors : sum local = 1.03905e-07, global = 8.16028e-09, cumulative = 1.58253e-06
ExecutionTime = 30.61 s  ClockTime = 33 s

fieldMinMax minMax write:
    min(mag(U)) = 0 in cell 36960 at location (0.000485708 0 0.05)
    max(mag(U)) = 73.3639 in cell 37649 at location (0.335535 0.00156898 0.05)

Time = 1.11

smoothSolver:  Solving for Ux, Initial residual = 0.000215736, Final residual = 1.38945e-06, No Iterations 1
smoothSolver:  Solving for Uy, Initial residual = 0.000739309, Final residual = 2.87087e-06, No Iterations 1
GAMG:  Solving for p, Initial residual = 0.000214583, Final residual = 2.04972e-05, No Iterations 4
time step continuity errors : sum local = 1.81742e-07, global = 7.00775e-09, cumulative = 1.58954e-06
ExecutionTime = 30.85 s  ClockTime = 33 s

fieldMinMax minMax write:
    min(mag(U)) = 0 in cell 36960 at location (0.000485708 0 0.05)
    max(mag(U)) = 73.364 in cell 37649 at location (0.335535 0.00156898 0.05)

Time = 1.12

smoothSolver:  Solving for Ux, Initial residual = 0.000205762, Final residual = 1.3353e-06, No Iterations 1
smoothSolver:  Solving for Uy, Initial residual = 0.000698641, Final residual = 2.73962e-06, No Iterations 1
GAMG:  Solving for p, Initial residual = 0.000212171, Final residual = 1.09006e-05, No Iterations 5
time step continuity errors : sum local = 9.66525e-08, global = 7.41152e-09, cumulative = 1.59695e-06
ExecutionTime = 31.12 s  ClockTime = 33 s

fieldMinMax minMax write:
    min(mag(U)) = 0 in cell 36960 at location (0.000485708 0 0.05)
    max(mag(U)) = 73.364 in cell 37649 at location (0.335535 0.00156898 0.05)

Time = 1.13

smoothSolver:  Solving for Ux, Initial residual = 0.000197392, Final residual = 1.28511e-06, No Iterations 1
smoothSolver:  Solving for Uy, Initial residual = 0.000660061, Final residual = 2.61666e-06, No Iterations 1
GAMG:  Solving for p, Initial residual = 0.00020398, Final residual = 1.87917e-05, No Iterations 4
time step continuity errors : sum local = 1.66623e-07, global = 6.47826e-09, cumulative = 1.60343e-06
ExecutionTime = 31.38 s  ClockTime = 33 s

fieldMinMax minMax write:
    min(mag(U)) = 0 in cell 36960 at location (0.000485708 0 0.05)
    max(mag(U)) = 73.3641 in cell 37649 at location (0.335535 0.00156898 0.05)

Time = 1.14

smoothSolver:  Solving for Ux, Initial residual = 0.000187855, Final residual = 1.23269e-06, No Iterations 1
smoothSolver:  Solving for Uy, Initial residual = 0.000623453, Final residual = 2.49589e-06, No Iterations 1
GAMG:  Solving for p, Initial residual = 0.000200991, Final residual = 2.0045e-05, No Iterations 4
time step continuity errors : sum local = 1.77739e-07, global = 6.27392e-09, cumulative = 1.6097e-06
ExecutionTime = 31.62 s  ClockTime = 34 s

fieldMinMax minMax write:
    min(mag(U)) = 0 in cell 36960 at location (0.000485708 0 0.05)
    max(mag(U)) = 73.3641 in cell 37649 at location (0.335535 0.00156898 0.05)

Time = 1.15

smoothSolver:  Solving for Ux, Initial residual = 0.000179523, Final residual = 1.18404e-06, No Iterations 1
smoothSolver:  Solving for Uy, Initial residual = 0.000589876, Final residual = 2.38456e-06, No Iterations 1
GAMG:  Solving for p, Initial residual = 0.000193836, Final residual = 1.83277e-05, No Iterations 4
time step continuity errors : sum local = 1.62521e-07, global = 6.08363e-09, cumulative = 1.61579e-06
ExecutionTime = 31.87 s  ClockTime = 34 s

fieldMinMax minMax write:
    min(mag(U)) = 0 in cell 36960 at location (0.000485708 0 0.05)
    max(mag(U)) = 73.3641 in cell 37649 at location (0.335535 0.00156898 0.05)

Time = 1.16

smoothSolver:  Solving for Ux, Initial residual = 0.000171392, Final residual = 1.13589e-06, No Iterations 1
smoothSolver:  Solving for Uy, Initial residual = 0.000557711, Final residual = 2.27936e-06, No Iterations 1
GAMG:  Solving for p, Initial residual = 0.000187215, Final residual = 1.68858e-05, No Iterations 4
time step continuity errors : sum local = 1.49742e-07, global = 5.4779e-09, cumulative = 1.62127e-06
ExecutionTime = 32.12 s  ClockTime = 34 s

fieldMinMax minMax write:
    min(mag(U)) = 0 in cell 36960 at location (0.000485708 0 0.05)
    max(mag(U)) = 73.3641 in cell 37649 at location (0.335535 0.00156898 0.05)

Time = 1.17

smoothSolver:  Solving for Ux, Initial residual = 0.000163199, Final residual = 1.08803e-06, No Iterations 1
smoothSolver:  Solving for Uy, Initial residual = 0.000527157, Final residual = 2.17461e-06, No Iterations 1
GAMG:  Solving for p, Initial residual = 0.000181288, Final residual = 1.59185e-05, No Iterations 4
time step continuity errors : sum local = 1.41168e-07, global = 4.9887e-09, cumulative = 1.62625e-06
ExecutionTime = 32.37 s  ClockTime = 34 s

fieldMinMax minMax write:
    min(mag(U)) = 0 in cell 36960 at location (0.000485708 0 0.05)
    max(mag(U)) = 73.3642 in cell 37649 at location (0.335535 0.00156898 0.05)

Time = 1.18

smoothSolver:  Solving for Ux, Initial residual = 0.000155405, Final residual = 1.04175e-06, No Iterations 1
smoothSolver:  Solving for Uy, Initial residual = 0.000498697, Final residual = 2.07327e-06, No Iterations 1
GAMG:  Solving for p, Initial residual = 0.000175318, Final residual = 1.51362e-05, No Iterations 4
time step continuity errors : sum local = 1.34238e-07, global = 4.53326e-09, cumulative = 1.63079e-06
ExecutionTime = 32.62 s  ClockTime = 35 s

fieldMinMax minMax write:
    min(mag(U)) = 0 in cell 36960 at location (0.000485708 0 0.05)
    max(mag(U)) = 73.3642 in cell 37649 at location (0.335535 0.00156898 0.05)

Time = 1.19

smoothSolver:  Solving for Ux, Initial residual = 0.000147987, Final residual = 9.97034e-07, No Iterations 1
smoothSolver:  Solving for Uy, Initial residual = 0.000472308, Final residual = 1.97733e-06, No Iterations 1
GAMG:  Solving for p, Initial residual = 0.0001695, Final residual = 1.44062e-05, No Iterations 4
time step continuity errors : sum local = 1.27771e-07, global = 4.18516e-09, cumulative = 1.63497e-06
ExecutionTime = 32.86 s  ClockTime = 35 s

fieldMinMax minMax write:
    min(mag(U)) = 0 in cell 36960 at location (0.000485708 0 0.05)
    max(mag(U)) = 73.3642 in cell 37649 at location (0.335535 0.00156898 0.05)

Time = 1.2

smoothSolver:  Solving for Ux, Initial residual = 0.000140901, Final residual = 9.53734e-07, No Iterations 1
[...]
time step continuity errors : sum local = 7.39641e-13, global = -6.47043e-15, cumulative = 1.63124e-06
ExecutionTime = 1121.69 s  ClockTime = 1234 s

fieldMinMax minMax write:
    min(mag(U)) = 0 in cell 36960 at location (0.000485708 0 0.05)
    max(mag(U)) = 73.3645 in cell 37649 at location (0.335535 0.00156898 0.05)

Time = 59.72

smoothSolver:  Solving for Ux, Initial residual = 8.59705e-11, Final residual = 8.59705e-11, No Iterations 0
smoothSolver:  Solving for Uy, Initial residual = 7.8311e-11, Final residual = 7.8311e-11, No Iterations 0
GAMG:  Solving for p, Initial residual = 1.21239e-10, Final residual = 3.89178e-12, No Iterations 1
time step continuity errors : sum local = 4.39413e-14, global = 4.90655e-15, cumulative = 1.63124e-06
ExecutionTime = 1121.91 s  ClockTime = 1234 s

fieldMinMax minMax write:
    min(mag(U)) = 0 in cell 36960 at location (0.000485708 0 0.05)
    max(mag(U)) = 73.3645 in cell 37649 at location (0.335535 0.00156898 0.05)

Time = 59.73

smoothSolver:  Solving for Ux, Initial residual = 1.22006e-10, Final residual = 5.96944e-13, No Iterations 1
smoothSolver:  Solving for Uy, Initial residual = 1.38006e-10, Final residual = 7.87224e-14, No Iterations 1
GAMG:  Solving for p, Initial residual = 4.12175e-11, Final residual = 4.12175e-11, No Iterations 0
time step continuity errors : sum local = 3.68209e-13, global = -8.76589e-15, cumulative = 1.63124e-06
ExecutionTime = 1122.1 s  ClockTime = 1234 s

fieldMinMax minMax write:
    min(mag(U)) = 0 in cell 36960 at location (0.000485708 0 0.05)
    max(mag(U)) = 73.3645 in cell 37649 at location (0.335535 0.00156898 0.05)

Time = 59.74

smoothSolver:  Solving for Ux, Initial residual = 6.47981e-11, Final residual = 6.47981e-11, No Iterations 0
smoothSolver:  Solving for Uy, Initial residual = 7.21471e-11, Final residual = 7.21471e-11, No Iterations 0
GAMG:  Solving for p, Initial residual = 4.96216e-11, Final residual = 4.96216e-11, No Iterations 0
time step continuity errors : sum local = 4.42695e-13, global = -1.17078e-14, cumulative = 1.63124e-06
ExecutionTime = 1122.27 s  ClockTime = 1234 s

fieldMinMax minMax write:
    min(mag(U)) = 0 in cell 36960 at location (0.000485708 0 0.05)
    max(mag(U)) = 73.3645 in cell 37649 at location (0.335535 0.00156898 0.05)

Time = 59.75

smoothSolver:  Solving for Ux, Initial residual = 9.24168e-11, Final residual = 9.24168e-11, No Iterations 0
smoothSolver:  Solving for Uy, Initial residual = 1.02549e-10, Final residual = 5.66485e-14, No Iterations 1
GAMG:  Solving for p, Initial residual = 2.00681e-10, Final residual = 4.26862e-12, No Iterations 1
time step continuity errors : sum local = 4.73805e-14, global = 3.34352e-15, cumulative = 1.63124e-06
ExecutionTime = 1122.48 s  ClockTime = 1234 s

fieldMinMax minMax write:
    min(mag(U)) = 0 in cell 36960 at location (0.000485708 0 0.05)
    max(mag(U)) = 73.3645 in cell 37649 at location (0.335535 0.00156898 0.05)

Time = 59.76

smoothSolver:  Solving for Ux, Initial residual = 1.28086e-10, Final residual = 6.01361e-13, No Iterations 1
smoothSolver:  Solving for Uy, Initial residual = 1.05311e-10, Final residual = 6.70032e-14, No Iterations 1
GAMG:  Solving for p, Initial residual = 7.44439e-11, Final residual = 7.44439e-11, No Iterations 0
time step continuity errors : sum local = 6.64036e-13, global = -8.71478e-15, cumulative = 1.63124e-06
ExecutionTime = 1122.68 s  ClockTime = 1235 s

fieldMinMax minMax write:
    min(mag(U)) = 0 in cell 36960 at location (0.000485708 0 0.05)
    max(mag(U)) = 73.3645 in cell 37649 at location (0.335535 0.00156898 0.05)

Time = 59.77

smoothSolver:  Solving for Ux, Initial residual = 6.75937e-11, Final residual = 6.75937e-11, No Iterations 0
smoothSolver:  Solving for Uy, Initial residual = 5.50462e-11, Final residual = 5.50462e-11, No Iterations 0
GAMG:  Solving for p, Initial residual = 1.18054e-10, Final residual = 3.92421e-12, No Iterations 1
time step continuity errors : sum local = 4.44493e-14, global = 2.71137e-15, cumulative = 1.63124e-06
ExecutionTime = 1122.89 s  ClockTime = 1235 s

fieldMinMax minMax write:
    min(mag(U)) = 0 in cell 36960 at location (0.000485708 0 0.05)
    max(mag(U)) = 73.3645 in cell 37649 at location (0.335535 0.00156898 0.05)

Time = 59.78

smoothSolver:  Solving for Ux, Initial residual = 9.5711e-11, Final residual = 9.5711e-11, No Iterations 0
smoothSolver:  Solving for Uy, Initial residual = 1.03968e-10, Final residual = 6.56794e-14, No Iterations 1
GAMG:  Solving for p, Initial residual = 2.38128e-10, Final residual = 2.81899e-12, No Iterations 1
time step continuity errors : sum local = 3.4803e-14, global = 3.41801e-16, cumulative = 1.63124e-06
ExecutionTime = 1123.11 s  ClockTime = 1235 s

fieldMinMax minMax write:
    min(mag(U)) = 0 in cell 36960 at location (0.000485708 0 0.05)
    max(mag(U)) = 73.3645 in cell 37649 at location (0.335535 0.00156898 0.05)

Time = 59.79

smoothSolver:  Solving for Ux, Initial residual = 1.34934e-10, Final residual = 6.05438e-13, No Iterations 1
smoothSolver:  Solving for Uy, Initial residual = 1.10504e-10, Final residual = 6.37275e-14, No Iterations 1
GAMG:  Solving for p, Initial residual = 4.52356e-11, Final residual = 4.52356e-11, No Iterations 0
time step continuity errors : sum local = 4.04017e-13, global = -1.23853e-14, cumulative = 1.63124e-06
ExecutionTime = 1123.28 s  ClockTime = 1235 s

fieldMinMax minMax write:
    min(mag(U)) = 0 in cell 36960 at location (0.000485708 0 0.05)
    max(mag(U)) = 73.3645 in cell 37649 at location (0.335535 0.00156898 0.05)

Time = 59.8

smoothSolver:  Solving for Ux, Initial residual = 7.12648e-11, Final residual = 7.12648e-11, No Iterations 0
smoothSolver:  Solving for Uy, Initial residual = 5.79442e-11, Final residual = 5.79442e-11, No Iterations 0
GAMG:  Solving for p, Initial residual = 9.12512e-11, Final residual = 9.12512e-11, No Iterations 0
time step continuity errors : sum local = 8.13489e-13, global = -1.63676e-14, cumulative = 1.63124e-06
ExecutionTime = 1123.45 s  ClockTime = 1235 s

fieldMinMax minMax write:
    min(mag(U)) = 0 in cell 36960 at location (0.000485708 0 0.05)
    max(mag(U)) = 73.3645 in cell 37649 at location (0.335535 0.00156898 0.05)

Time = 59.81

smoothSolver:  Solving for Ux, Initial residual = 1.01269e-10, Final residual = 5.88127e-13, No Iterations 1
smoothSolver:  Solving for Uy, Initial residual = 8.34241e-11, Final residual = 8.34241e-11, No Iterations 0
GAMG:  Solving for p, Initial residual = 1.44052e-10, Final residual = 3.32005e-12, No Iterations 1
time step continuity errors : sum local = 3.90751e-14, global = 5.34293e-15, cumulative = 1.63124e-06
ExecutionTime = 1123.65 s  ClockTime = 1236 s

fieldMinMax minMax write:
    min(mag(U)) = 0 in cell 36960 at location (0.000485708 0 0.05)
    max(mag(U)) = 73.3645 in cell 37649 at location (0.335535 0.00156898 0.05)

Time = 59.82

smoothSolver:  Solving for Ux, Initial residual = 5.44483e-11, Final residual = 5.44483e-11, No Iterations 0
smoothSolver:  Solving for Uy, Initial residual = 8.73308e-11, Final residual = 8.73308e-11, No Iterations 0
GAMG:  Solving for p, Initial residual = 7.13853e-11, Final residual = 7.13853e-11, No Iterations 0
time step continuity errors : sum local = 6.3698e-13, global = 3.79208e-15, cumulative = 1.63124e-06
ExecutionTime = 1123.82 s  ClockTime = 1236 s

fieldMinMax minMax write:
    min(mag(U)) = 0 in cell 36960 at location (0.000485708 0 0.05)
    max(mag(U)) = 73.3645 in cell 37649 at location (0.335535 0.00156898 0.05)

Time = 59.83

smoothSolver:  Solving for Ux, Initial residual = 7.8117e-11, Final residual = 7.8117e-11, No Iterations 0
smoothSolver:  Solving for Uy, Initial residual = 1.2498e-10, Final residual = 6.78972e-14, No Iterations 1
GAMG:  Solving for p, Initial residual = 1.38373e-10, Final residual = 2.84692e-12, No Iterations 1
time step continuity errors : sum local = 3.51395e-14, global = -1.15622e-15, cumulative = 1.63124e-06
ExecutionTime = 1124.02 s  ClockTime = 1236 s

fieldMinMax minMax write:
    min(mag(U)) = 0 in cell 36960 at location (0.000485708 0 0.05)
    max(mag(U)) = 73.3645 in cell 37649 at location (0.335535 0.00156898 0.05)

Time = 59.84

smoothSolver:  Solving for Ux, Initial residual = 1.10772e-10, Final residual = 5.89274e-13, No Iterations 1
smoothSolver:  Solving for Uy, Initial residual = 9.40731e-11, Final residual = 9.40731e-11, No Iterations 0
GAMG:  Solving for p, Initial residual = 2.06597e-10, Final residual = 2.9787e-12, No Iterations 1
time step continuity errors : sum local = 3.63232e-14, global = -4.11331e-16, cumulative = 1.63124e-06
ExecutionTime = 1124.19 s  ClockTime = 1236 s

fieldMinMax minMax write:
    min(mag(U)) = 0 in cell 36960 at location (0.000485708 0 0.05)
    max(mag(U)) = 73.3645 in cell 37649 at location (0.335535 0.00156898 0.05)

Time = 59.85

smoothSolver:  Solving for Ux, Initial residual = 6.02103e-11, Final residual = 6.02103e-11, No Iterations 0
smoothSolver:  Solving for Uy, Initial residual = 8.40904e-11, Final residual = 8.40904e-11, No Iterations 0
GAMG:  Solving for p, Initial residual = 8.20726e-11, Final residual = 8.20726e-11, No Iterations 0
time step continuity errors : sum local = 7.32044e-13, global = 4.12651e-17, cumulative = 1.63124e-06
ExecutionTime = 1124.34 s  ClockTime = 1236 s

fieldMinMax minMax write:
    min(mag(U)) = 0 in cell 36960 at location (0.000485708 0 0.05)
    max(mag(U)) = 73.3645 in cell 37649 at location (0.335535 0.00156898 0.05)

Time = 59.86

smoothSolver:  Solving for Ux, Initial residual = 8.57954e-11, Final residual = 8.57954e-11, No Iterations 0
smoothSolver:  Solving for Uy, Initial residual = 1.19197e-10, Final residual = 6.74082e-14, No Iterations 1
GAMG:  Solving for p, Initial residual = 1.97765e-10, Final residual = 3.04713e-12, No Iterations 1
time step continuity errors : sum local = 3.70565e-14, global = -3.20305e-15, cumulative = 1.63124e-06
ExecutionTime = 1124.52 s  ClockTime = 1237 s

fieldMinMax minMax write:
    min(mag(U)) = 0 in cell 36960 at location (0.000485708 0 0.05)
    max(mag(U)) = 73.3645 in cell 37649 at location (0.335535 0.00156898 0.05)

Time = 59.87

smoothSolver:  Solving for Ux, Initial residual = 1.19429e-10, Final residual = 5.95789e-13, No Iterations 1
smoothSolver:  Solving for Uy, Initial residual = 1.13624e-10, Final residual = 6.28478e-14, No Iterations 1
GAMG:  Solving for p, Initial residual = 4.52978e-11, Final residual = 4.52978e-11, No Iterations 0
time step continuity errors : sum local = 4.04558e-13, global = -1.05433e-14, cumulative = 1.63124e-06
ExecutionTime = 1124.67 s  ClockTime = 1237 s

fieldMinMax minMax write:
    min(mag(U)) = 0 in cell 36960 at location (0.000485708 0 0.05)
    max(mag(U)) = 73.3645 in cell 37649 at location (0.335535 0.00156898 0.05)

Time = 59.88

smoothSolver:  Solving for Ux, Initial residual = 6.3677e-11, Final residual = 6.3677e-11, No Iterations 0
smoothSolver:  Solving for Uy, Initial residual = 5.94181e-11, Final residual = 5.94181e-11, No Iterations 0
GAMG:  Solving for p, Initial residual = 4.81e-11, Final residual = 4.81e-11, No Iterations 0
time step continuity errors : sum local = 4.29265e-13, global = -1.21644e-14, cumulative = 1.63124e-06
ExecutionTime = 1124.81 s  ClockTime = 1237 s

fieldMinMax minMax write:
    min(mag(U)) = 0 in cell 36960 at location (0.000485708 0 0.05)
    max(mag(U)) = 73.3645 in cell 37649 at location (0.335535 0.00156898 0.05)

Time = 59.89

smoothSolver:  Solving for Ux, Initial residual = 9.20308e-11, Final residual = 9.20308e-11, No Iterations 0
smoothSolver:  Solving for Uy, Initial residual = 8.48637e-11, Final residual = 8.48637e-11, No Iterations 0
GAMG:  Solving for p, Initial residual = 7.44033e-11, Final residual = 7.44033e-11, No Iterations 0
time step continuity errors : sum local = 6.63301e-13, global = -1.32976e-14, cumulative = 1.63124e-06
ExecutionTime = 1124.95 s  ClockTime = 1237 s

fieldMinMax minMax write:
    min(mag(U)) = 0 in cell 36960 at location (0.000485708 0 0.05)
    max(mag(U)) = 73.3645 in cell 37649 at location (0.335535 0.00156898 0.05)

Time = 59.9

smoothSolver:  Solving for Ux, Initial residual = 1.31223e-10, Final residual = 6.03633e-13, No Iterations 1
smoothSolver:  Solving for Uy, Initial residual = 1.21011e-10, Final residual = 6.41162e-14, No Iterations 1
GAMG:  Solving for p, Initial residual = 5.76333e-11, Final residual = 5.76333e-11, No Iterations 0
time step continuity errors : sum local = 5.1423e-13, global = -1.96058e-14, cumulative = 1.63124e-06
ExecutionTime = 1125.1 s  ClockTime = 1237 s

fieldMinMax minMax write:
    min(mag(U)) = 0 in cell 36960 at location (0.000485708 0 0.05)
    max(mag(U)) = 73.3645 in cell 37649 at location (0.335535 0.00156898 0.05)

Time = 59.91

smoothSolver:  Solving for Ux, Initial residual = 6.91906e-11, Final residual = 6.91906e-11, No Iterations 0
smoothSolver:  Solving for Uy, Initial residual = 6.34573e-11, Final residual = 6.34573e-11, No Iterations 0
GAMG:  Solving for p, Initial residual = 7.3745e-11, Final residual = 7.3745e-11, No Iterations 0
time step continuity errors : sum local = 6.57503e-13, global = -2.16122e-14, cumulative = 1.63124e-06
ExecutionTime = 1125.24 s  ClockTime = 1237 s

fieldMinMax minMax write:
    min(mag(U)) = 0 in cell 36960 at location (0.000485708 0 0.05)
    max(mag(U)) = 73.3645 in cell 37649 at location (0.335535 0.00156898 0.05)

Time = 59.92

smoothSolver:  Solving for Ux, Initial residual = 9.86012e-11, Final residual = 9.86012e-11, No Iterations 0
smoothSolver:  Solving for Uy, Initial residual = 9.15339e-11, Final residual = 9.15339e-11, No Iterations 0
GAMG:  Solving for p, Initial residual = 8.85883e-11, Final residual = 8.85883e-11, No Iterations 0
time step continuity errors : sum local = 7.89615e-13, global = -2.67777e-14, cumulative = 1.63124e-06
ExecutionTime = 1125.38 s  ClockTime = 1237 s

fieldMinMax minMax write:
    min(mag(U)) = 0 in cell 36960 at location (0.000485708 0 0.05)
    max(mag(U)) = 73.3645 in cell 37649 at location (0.335535 0.00156898 0.05)

Time = 59.93

smoothSolver:  Solving for Ux, Initial residual = 1.41721e-10, Final residual = 6.12031e-13, No Iterations 1
smoothSolver:  Solving for Uy, Initial residual = 1.30787e-10, Final residual = 6.64072e-14, No Iterations 1
GAMG:  Solving for p, Initial residual = 4.19587e-11, Final residual = 4.19587e-11, No Iterations 0
time step continuity errors : sum local = 3.74545e-13, global = -1.73332e-14, cumulative = 1.63124e-06
ExecutionTime = 1125.53 s  ClockTime = 1238 s

fieldMinMax minMax write:
    min(mag(U)) = 0 in cell 36960 at location (0.000485708 0 0.05)
    max(mag(U)) = 73.3645 in cell 37649 at location (0.335535 0.00156898 0.05)

Time = 59.94

smoothSolver:  Solving for Ux, Initial residual = 7.51531e-11, Final residual = 7.51531e-11, No Iterations 0
smoothSolver:  Solving for Uy, Initial residual = 6.85177e-11, Final residual = 6.85177e-11, No Iterations 0
GAMG:  Solving for p, Initial residual = 6.55429e-11, Final residual = 6.55429e-11, No Iterations 0
time step continuity errors : sum local = 5.84416e-13, global = -1.69669e-14, cumulative = 1.63124e-06
ExecutionTime = 1125.67 s  ClockTime = 1238 s

fieldMinMax minMax write:
    min(mag(U)) = 0 in cell 36960 at location (0.000485708 0 0.05)
    max(mag(U)) = 73.3645 in cell 37649 at location (0.335535 0.00156898 0.05)

Time = 59.95

smoothSolver:  Solving for Ux, Initial residual = 1.07718e-10, Final residual = 5.88989e-13, No Iterations 1
smoothSolver:  Solving for Uy, Initial residual = 9.74805e-11, Final residual = 9.74805e-11, No Iterations 0
GAMG:  Solving for p, Initial residual = 1.79687e-10, Final residual = 2.95734e-12, No Iterations 1
time step continuity errors : sum local = 3.58983e-14, global = -1.08886e-15, cumulative = 1.63124e-06
ExecutionTime = 1125.85 s  ClockTime = 1238 s

fieldMinMax minMax write:
    min(mag(U)) = 0 in cell 36960 at location (0.000485708 0 0.05)
    max(mag(U)) = 73.3645 in cell 37649 at location (0.335535 0.00156898 0.05)

Time = 59.96

smoothSolver:  Solving for Ux, Initial residual = 5.75557e-11, Final residual = 5.75557e-11, No Iterations 0
smoothSolver:  Solving for Uy, Initial residual = 1.00397e-10, Final residual = 5.56439e-14, No Iterations 1
GAMG:  Solving for p, Initial residual = 1.20467e-10, Final residual = 2.23526e-12, No Iterations 1
time step continuity errors : sum local = 2.97415e-14, global = -1.22482e-16, cumulative = 1.63124e-06
ExecutionTime = 1126.02 s  ClockTime = 1238 s

fieldMinMax minMax write:
    min(mag(U)) = 0 in cell 36960 at location (0.000485708 0 0.05)
    max(mag(U)) = 73.3645 in cell 37649 at location (0.335535 0.00156898 0.05)

Time = 59.97

smoothSolver:  Solving for Ux, Initial residual = 8.00392e-11, Final residual = 8.00392e-11, No Iterations 0
smoothSolver:  Solving for Uy, Initial residual = 8.35926e-11, Final residual = 8.35926e-11, No Iterations 0
GAMG:  Solving for p, Initial residual = 4.36255e-11, Final residual = 4.36255e-11, No Iterations 0
time step continuity errors : sum local = 3.89569e-13, global = 1.58478e-15, cumulative = 1.63124e-06
ExecutionTime = 1126.16 s  ClockTime = 1238 s

fieldMinMax minMax write:
    min(mag(U)) = 0 in cell 36960 at location (0.000485708 0 0.05)
    max(mag(U)) = 73.3645 in cell 37649 at location (0.335535 0.00156898 0.05)

Time = 59.98

smoothSolver:  Solving for Ux, Initial residual = 1.14258e-10, Final residual = 5.93014e-13, No Iterations 1
smoothSolver:  Solving for Uy, Initial residual = 1.18542e-10, Final residual = 6.44875e-14, No Iterations 1
GAMG:  Solving for p, Initial residual = 4.07011e-11, Final residual = 4.07011e-11, No Iterations 0
time step continuity errors : sum local = 3.63565e-13, global = -8.22992e-15, cumulative = 1.63124e-06
ExecutionTime = 1126.32 s  ClockTime = 1238 s

fieldMinMax minMax write:
    min(mag(U)) = 0 in cell 36960 at location (0.000485708 0 0.05)
    max(mag(U)) = 73.3645 in cell 37649 at location (0.335535 0.00156898 0.05)

Time = 59.99

smoothSolver:  Solving for Ux, Initial residual = 6.09781e-11, Final residual = 6.09781e-11, No Iterations 0
smoothSolver:  Solving for Uy, Initial residual = 6.19025e-11, Final residual = 6.19025e-11, No Iterations 0
GAMG:  Solving for p, Initial residual = 6.43669e-11, Final residual = 6.43669e-11, No Iterations 0
time step continuity errors : sum local = 5.74001e-13, global = -9.63282e-15, cumulative = 1.63124e-06
ExecutionTime = 1126.47 s  ClockTime = 1239 s

fieldMinMax minMax write:
    min(mag(U)) = 0 in cell 36960 at location (0.000485708 0 0.05)
    max(mag(U)) = 73.3645 in cell 37649 at location (0.335535 0.00156898 0.05)

Time = 60

smoothSolver:  Solving for Ux, Initial residual = 8.77439e-11, Final residual = 8.77439e-11, No Iterations 0
smoothSolver:  Solving for Uy, Initial residual = 8.83053e-11, Final residual = 8.83053e-11, No Iterations 0
GAMG:  Solving for p, Initial residual = 8.67041e-11, Final residual = 8.67041e-11, No Iterations 0
time step continuity errors : sum local = 7.72824e-13, global = -1.36883e-14, cumulative = 1.63124e-06
ExecutionTime = 1127.02 s  ClockTime = 1239 s

fieldMinMax minMax write:
    min(mag(U)) = 0 in cell 36960 at location (0.000485708 0 0.05)
    max(mag(U)) = 73.3645 in cell 37649 at location (0.335535 0.00156898 0.05)

yPlus yPlus write:
    writing field yPlus
    patch topWall y+ : min = 0.0111597, max = 0.140353, average = 0.109584
    patch bottomWall y+ : min = 25.3838, max = 51.0719, average = 41.2908
writeCellCentres writeCellCentres write:
    writing cell-volumes field C to 60
    Writing the x component field of the cell-centres Cx to 60
    Writing the y component field of the cell-centres Cy to 60
    Writing the z component field of the cell-centres Cz to 60
wallShearStress wallShearStress write:
    writing field wallShearStress
    min/max(topWall) = (-1.01655e-09 -1.11311e-06 0), (1.96404e-09 -7.35483e-09 0)
    min/max(bottomWall) = (-1.84248 -0.00283541 0), (-0.455107 0.000231934 0)
End

