/*---------------------------------------------------------------------------*\
| =========                 |                                                 |
| \\      /  F ield         | OpenFOAM: The Open Source CFD Toolbox           |
|  \\    /   O peration     | Version:  v2012                                 |
|   \\  /    A nd           | Website:  www.openfoam.com                      |
|    \\/     M anipulation  |                                                 |
\*---------------------------------------------------------------------------*/
Build  : _7bdb509494-20201222 OPENFOAM=2012
Arch   : "LSB;label=32;scalar=64"
Exec   : simpleFoam
Date   : Mar 23 2025
Time   : 01:36:50
Host   : Taupok
PID    : 3341
I/O    : uncollated
Case   : /mnt/c/Users/lowjo/OneDrive/Desktop/ASTAR/DASH/testLaminarFlatPlate
nProcs : 1
trapFpe: Floating point exception trapping enabled (FOAM_SIGFPE).
fileModificationChecking : Monitoring run-time modified files using timeStampMaster (fileModificationSkew 5, maxFileModificationPolls 20)
allowSystemOperations : Allowing user-supplied system call operations

// * * * * * * * * * * * * * * * * * * * * * * * * * * * * * * * * * * * * * //
Create time

Create mesh for time = 0


SIMPLE: no convergence criteria found. Calculations will run for 60 steps.

Reading field p

Reading field U

Reading/calculating face flux field phi

Selecting incompressible transport model Newtonian
Selecting turbulence model type laminar
Selecting laminar stress model Stokes
No MRF models present

No finite volume options present

Starting time loop

wallShearStress wallShearStress:
    processing all wall patches

Time = 0.01

smoothSolver:  Solving for Ux, Initial residual = 1, Final residual = 0.0866777, No Iterations 1
smoothSolver:  Solving for Uy, Initial residual = 1, Final residual = 0.0157998, No Iterations 1
GAMG:  Solving for p, Initial residual = 1, Final residual = 0.0700947, No Iterations 12
time step continuity errors : sum local = 1.90284e-06, global = -1.96492e-07, cumulative = -1.96492e-07
ExecutionTime = 1.65 s  ClockTime = 2 s

fieldMinMax minMax write:
    min(mag(U)) = 0 in cell 36960 at location (0.000485708 0 0.05)
    max(mag(U)) = 69.4487 in cell 38765 at location (0.00932187 0.000449423 0.05)

Time = 0.02

smoothSolver:  Solving for Ux, Initial residual = 0.0429891, Final residual = 0.00136702, No Iterations 2
smoothSolver:  Solving for Uy, Initial residual = 0.324263, Final residual = 0.00278029, No Iterations 1
GAMG:  Solving for p, Initial residual = 0.00142854, Final residual = 9.48025e-05, No Iterations 7
time step continuity errors : sum local = 2.3185e-06, global = 5.89475e-07, cumulative = 3.92983e-07
ExecutionTime = 2.01 s  ClockTime = 3 s

fieldMinMax minMax write:
    min(mag(U)) = 0 in cell 36960 at location (0.000485708 0 0.05)
    max(mag(U)) = 70.5057 in cell 37411 at location (0.00243313 0.000147072 0.05)

Time = 0.03

smoothSolver:  Solving for Ux, Initial residual = 0.0174996, Final residual = 0.000779553, No Iterations 2
smoothSolver:  Solving for Uy, Initial residual = 0.162231, Final residual = 0.00139178, No Iterations 1
GAMG:  Solving for p, Initial residual = 0.00148355, Final residual = 0.00014238, No Iterations 7
time step continuity errors : sum local = 3.02132e-06, global = 6.15748e-07, cumulative = 1.00873e-06
ExecutionTime = 2.35 s  ClockTime = 3 s

fieldMinMax minMax write:
    min(mag(U)) = 0 in cell 36960 at location (0.000485708 0 0.05)
    max(mag(U)) = 71.5412 in cell 37412 at location (0.00341029 0.000147072 0.05)

Time = 0.04

smoothSolver:  Solving for Ux, Initial residual = 0.00963412, Final residual = 0.000552002, No Iterations 2
smoothSolver:  Solving for Uy, Initial residual = 0.0910173, Final residual = 0.000763727, No Iterations 1
GAMG:  Solving for p, Initial residual = 0.00174339, Final residual = 0.000118787, No Iterations 5
time step continuity errors : sum local = 1.89712e-06, global = 3.39531e-07, cumulative = 1.34826e-06
ExecutionTime = 2.65 s  ClockTime = 3 s

fieldMinMax minMax write:
    min(mag(U)) = 0 in cell 36960 at location (0.000485708 0 0.05)
    max(mag(U)) = 72.091 in cell 37412 at location (0.00341029 0.000147072 0.05)

Time = 0.05

smoothSolver:  Solving for Ux, Initial residual = 0.0063544, Final residual = 0.000428299, No Iterations 2
smoothSolver:  Solving for Uy, Initial residual = 0.0625898, Final residual = 0.000504442, No Iterations 1
GAMG:  Solving for p, Initial residual = 0.00169449, Final residual = 0.000129239, No Iterations 5
time step continuity errors : sum local = 1.68579e-06, global = -1.82769e-07, cumulative = 1.16549e-06
ExecutionTime = 2.94 s  ClockTime = 4 s

fieldMinMax minMax write:
    min(mag(U)) = 0 in cell 36960 at location (0.000485708 0 0.05)
    max(mag(U)) = 72.3111 in cell 37412 at location (0.00341029 0.000147072 0.05)

Time = 0.06

smoothSolver:  Solving for Ux, Initial residual = 0.00468735, Final residual = 0.000349827, No Iterations 2
smoothSolver:  Solving for Uy, Initial residual = 0.0483567, Final residual = 0.000374968, No Iterations 1
GAMG:  Solving for p, Initial residual = 0.00162272, Final residual = 0.000118947, No Iterations 5
time step continuity errors : sum local = 1.36259e-06, global = -2.45209e-07, cumulative = 9.20283e-07
ExecutionTime = 3.23 s  ClockTime = 4 s

fieldMinMax minMax write:
    min(mag(U)) = 0 in cell 36960 at location (0.000485708 0 0.05)
    max(mag(U)) = 72.3898 in cell 37412 at location (0.00341029 0.000147072 0.05)

Time = 0.07

smoothSolver:  Solving for Ux, Initial residual = 0.00370393, Final residual = 0.000295256, No Iterations 2
smoothSolver:  Solving for Uy, Initial residual = 0.0399982, Final residual = 0.000303737, No Iterations 1
GAMG:  Solving for p, Initial residual = 0.0015918, Final residual = 0.00015704, No Iterations 4
time step continuity errors : sum local = 1.65388e-06, global = 6.75257e-07, cumulative = 1.59554e-06
ExecutionTime = 3.48 s  ClockTime = 4 s

fieldMinMax minMax write:
    min(mag(U)) = 0 in cell 36960 at location (0.000485708 0 0.05)
    max(mag(U)) = 72.4185 in cell 37412 at location (0.00341029 0.000147072 0.05)

Time = 0.08

smoothSolver:  Solving for Ux, Initial residual = 0.00305714, Final residual = 0.000254915, No Iterations 2
smoothSolver:  Solving for Uy, Initial residual = 0.0345055, Final residual = 0.000259533, No Iterations 1
GAMG:  Solving for p, Initial residual = 0.00160929, Final residual = 0.000129405, No Iterations 4
time step continuity errors : sum local = 1.28843e-06, global = 6.19434e-07, cumulative = 2.21497e-06
ExecutionTime = 3.72 s  ClockTime = 5 s

fieldMinMax minMax write:
    min(mag(U)) = 0 in cell 36960 at location (0.000485708 0 0.05)
    max(mag(U)) = 72.4301 in cell 37412 at location (0.00341029 0.000147072 0.05)

Time = 0.09

smoothSolver:  Solving for Ux, Initial residual = 0.00260101, Final residual = 0.000223797, No Iterations 2
smoothSolver:  Solving for Uy, Initial residual = 0.0302952, Final residual = 0.000226797, No Iterations 1
GAMG:  Solving for p, Initial residual = 0.00154052, Final residual = 0.000122132, No Iterations 4
time step continuity errors : sum local = 1.16303e-06, global = 4.91691e-07, cumulative = 2.70667e-06
ExecutionTime = 3.97 s  ClockTime = 5 s

fieldMinMax minMax write:
    min(mag(U)) = 0 in cell 36960 at location (0.000485708 0 0.05)
    max(mag(U)) = 72.5139 in cell 37867 at location (0.00932187 0.000246581 0.05)

Time = 0.1

smoothSolver:  Solving for Ux, Initial residual = 0.00223213, Final residual = 0.000199007, No Iterations 2
smoothSolver:  Solving for Uy, Initial residual = 0.0267392, Final residual = 0.000200263, No Iterations 1
GAMG:  Solving for p, Initial residual = 0.00150347, Final residual = 0.000102672, No Iterations 4
time step continuity errors : sum local = 9.28201e-07, global = 4.10604e-07, cumulative = 3.11727e-06
ExecutionTime = 4.22 s  ClockTime = 5 s

fieldMinMax minMax write:
    min(mag(U)) = 0 in cell 36960 at location (0.000485708 0 0.05)
    max(mag(U)) = 72.589 in cell 37866 at location (0.00833079 0.000246581 0.05)

Time = 0.11

smoothSolver:  Solving for Ux, Initial residual = 0.00196169, Final residual = 0.000178783, No Iterations 2
smoothSolver:  Solving for Uy, Initial residual = 0.0240485, Final residual = 0.000178759, No Iterations 1
GAMG:  Solving for p, Initial residual = 0.00142969, Final residual = 8.98965e-05, No Iterations 4
time step continuity errors : sum local = 7.85435e-07, global = 3.70675e-07, cumulative = 3.48794e-06
ExecutionTime = 4.46 s  ClockTime = 5 s

fieldMinMax minMax write:
    min(mag(U)) = 0 in cell 36960 at location (0.000485708 0 0.05)
    max(mag(U)) = 72.6514 in cell 37866 at location (0.00833079 0.000246581 0.05)

Time = 0.12

smoothSolver:  Solving for Ux, Initial residual = 0.00174551, Final residual = 0.000161956, No Iterations 2
smoothSolver:  Solving for Uy, Initial residual = 0.0218724, Final residual = 0.000160807, No Iterations 1
GAMG:  Solving for p, Initial residual = 0.00136617, Final residual = 8.15786e-05, No Iterations 4
time step continuity errors : sum local = 6.93048e-07, global = 3.30675e-07, cumulative = 3.81862e-06
ExecutionTime = 4.71 s  ClockTime = 6 s

fieldMinMax minMax write:
    min(mag(U)) = 0 in cell 36960 at location (0.000485708 0 0.05)
    max(mag(U)) = 72.6955 in cell 37866 at location (0.00833079 0.000246581 0.05)

Time = 0.13

smoothSolver:  Solving for Ux, Initial residual = 0.00156929, Final residual = 0.000147725, No Iterations 2
smoothSolver:  Solving for Uy, Initial residual = 0.0200696, Final residual = 0.000145992, No Iterations 1
GAMG:  Solving for p, Initial residual = 0.001312, Final residual = 7.66994e-05, No Iterations 4
time step continuity errors : sum local = 6.36593e-07, global = 3.00783e-07, cumulative = 4.1194e-06
ExecutionTime = 4.96 s  ClockTime = 6 s

fieldMinMax minMax write:
    min(mag(U)) = 0 in cell 36960 at location (0.000485708 0 0.05)
    max(mag(U)) = 72.7268 in cell 37866 at location (0.00833079 0.000246581 0.05)

Time = 0.14

smoothSolver:  Solving for Ux, Initial residual = 0.00142216, Final residual = 0.000135524, No Iterations 2
smoothSolver:  Solving for Uy, Initial residual = 0.0185268, Final residual = 0.00013323, No Iterations 1
GAMG:  Solving for p, Initial residual = 0.00125957, Final residual = 7.24789e-05, No Iterations 4
time step continuity errors : sum local = 5.89227e-07, global = 2.72842e-07, cumulative = 4.39225e-06
ExecutionTime = 5.21 s  ClockTime = 6 s

fieldMinMax minMax write:
    min(mag(U)) = 0 in cell 36960 at location (0.000485708 0 0.05)
    max(mag(U)) = 72.749 in cell 37866 at location (0.00833079 0.000246581 0.05)

Time = 0.15

smoothSolver:  Solving for Ux, Initial residual = 0.00129732, Final residual = 0.000124942, No Iterations 2
smoothSolver:  Solving for Uy, Initial residual = 0.0171836, Final residual = 0.000122125, No Iterations 1
GAMG:  Solving for p, Initial residual = 0.00120532, Final residual = 6.75014e-05, No Iterations 4
time step continuity errors : sum local = 5.38445e-07, global = 2.44166e-07, cumulative = 4.63641e-06
ExecutionTime = 5.45 s  ClockTime = 6 s

fieldMinMax minMax write:
    min(mag(U)) = 0 in cell 36960 at location (0.000485708 0 0.05)
    max(mag(U)) = 72.7647 in cell 37866 at location (0.00833079 0.000246581 0.05)

Time = 0.16

smoothSolver:  Solving for Ux, Initial residual = 0.00119041, Final residual = 0.000115672, No Iterations 2
smoothSolver:  Solving for Uy, Initial residual = 0.0160121, Final residual = 0.000112274, No Iterations 1
GAMG:  Solving for p, Initial residual = 0.00114749, Final residual = 0.000113085, No Iterations 3
time step continuity errors : sum local = 8.86741e-07, global = -5.21944e-08, cumulative = 4.58422e-06
ExecutionTime = 5.69 s  ClockTime = 7 s

fieldMinMax minMax write:
    min(mag(U)) = 0 in cell 36960 at location (0.000485708 0 0.05)
    max(mag(U)) = 72.7757 in cell 37866 at location (0.00833079 0.000246581 0.05)

Time = 0.17

smoothSolver:  Solving for Ux, Initial residual = 0.00109989, Final residual = 0.000107486, No Iterations 2
smoothSolver:  Solving for Uy, Initial residual = 0.0150294, Final residual = 0.000103998, No Iterations 1
GAMG:  Solving for p, Initial residual = 0.00115267, Final residual = 6.45451e-05, No Iterations 4
time step continuity errors : sum local = 4.99707e-07, global = 1.80669e-07, cumulative = 4.76489e-06
ExecutionTime = 5.97 s  ClockTime = 7 s

fieldMinMax minMax write:
    min(mag(U)) = 0 in cell 36960 at location (0.000485708 0 0.05)
    max(mag(U)) = 72.7835 in cell 37866 at location (0.00833079 0.000246581 0.05)

Time = 0.18

smoothSolver:  Solving for Ux, Initial residual = 0.00101599, Final residual = 0.000100193, No Iterations 2
smoothSolver:  Solving for Uy, Initial residual = 0.0140426, Final residual = 9.57279e-05, No Iterations 1
GAMG:  Solving for p, Initial residual = 0.00104772, Final residual = 8.10521e-05, No Iterations 3
time step continuity errors : sum local = 6.15959e-07, global = -9.37719e-09, cumulative = 4.75551e-06
ExecutionTime = 6.23 s  ClockTime = 7 s

fieldMinMax minMax write:
    min(mag(U)) = 0 in cell 36960 at location (0.000485708 0 0.05)
    max(mag(U)) = 72.7887 in cell 37866 at location (0.00833079 0.000246581 0.05)

Time = 0.19

smoothSolver:  Solving for Ux, Initial residual = 0.000946562, Final residual = 9.3666e-05, No Iterations 2
smoothSolver:  Solving for Uy, Initial residual = 0.0133414, Final residual = 8.99079e-05, No Iterations 1
GAMG:  Solving for p, Initial residual = 0.00100816, Final residual = 8.62615e-05, No Iterations 3
time step continuity errors : sum local = 6.5122e-07, global = 1.67243e-08, cumulative = 4.77223e-06
ExecutionTime = 6.46 s  ClockTime = 7 s

fieldMinMax minMax write:
    min(mag(U)) = 0 in cell 36960 at location (0.000485708 0 0.05)
    max(mag(U)) = 72.7924 in cell 37866 at location (0.00833079 0.000246581 0.05)

Time = 0.2

smoothSolver:  Solving for Ux, Initial residual = 0.00088356, Final residual = 8.77819e-05, No Iterations 2
smoothSolver:  Solving for Uy, Initial residual = 0.01258, Final residual = 8.38801e-05, No Iterations 1
GAMG:  Solving for p, Initial residual = 0.000941149, Final residual = 7.71427e-05, No Iterations 3
time step continuity errors : sum local = 5.76417e-07, global = 2.49528e-08, cumulative = 4.79719e-06
ExecutionTime = 6.68 s  ClockTime = 8 s

fieldMinMax minMax write:
    min(mag(U)) = 0 in cell 36960 at location (0.000485708 0 0.05)
    max(mag(U)) = 72.7947 in cell 37866 at location (0.00833079 0.000246581 0.05)

Time = 0.21

smoothSolver:  Solving for Ux, Initial residual = 0.000826083, Final residual = 8.24525e-05, No Iterations 2
smoothSolver:  Solving for Uy, Initial residual = 0.0119357, Final residual = 7.87143e-05, No Iterations 1
GAMG:  Solving for p, Initial residual = 0.000878965, Final residual = 6.53245e-05, No Iterations 3
time step continuity errors : sum local = 4.8333e-07, global = 3.40827e-08, cumulative = 4.83127e-06
ExecutionTime = 6.9 s  ClockTime = 8 s

fieldMinMax minMax write:
    min(mag(U)) = 0 in cell 36960 at location (0.000485708 0 0.05)
    max(mag(U)) = 72.7962 in cell 37866 at location (0.00833079 0.000246581 0.05)

Time = 0.22

smoothSolver:  Solving for Ux, Initial residual = 0.000774493, Final residual = 3.70258e-05, No Iterations 3
smoothSolver:  Solving for Uy, Initial residual = 0.011368, Final residual = 7.41317e-05, No Iterations 1
GAMG:  Solving for p, Initial residual = 0.000826068, Final residual = 5.03002e-05, No Iterations 5
time step continuity errors : sum local = 3.69301e-07, global = -8.89682e-08, cumulative = 4.7423e-06
ExecutionTime = 7.21 s  ClockTime = 8 s

fieldMinMax minMax write:
    min(mag(U)) = 0 in cell 36960 at location (0.000485708 0 0.05)
    max(mag(U)) = 72.7971 in cell 37866 at location (0.00833079 0.000246581 0.05)

Time = 0.23

smoothSolver:  Solving for Ux, Initial residual = 0.00074409, Final residual = 7.24624e-05, No Iterations 2
smoothSolver:  Solving for Uy, Initial residual = 0.011278, Final residual = 7.65581e-05, No Iterations 1
GAMG:  Solving for p, Initial residual = 0.00083101, Final residual = 7.59848e-05, No Iterations 4
time step continuity errors : sum local = 5.71773e-07, global = -1.54485e-07, cumulative = 4.58782e-06
ExecutionTime = 7.44 s  ClockTime = 8 s

fieldMinMax minMax write:
    min(mag(U)) = 0 in cell 36960 at location (0.000485708 0 0.05)
    max(mag(U)) = 72.7976 in cell 37866 at location (0.00833079 0.000246581 0.05)

Time = 0.24

smoothSolver:  Solving for Ux, Initial residual = 0.000693017, Final residual = 6.84895e-05, No Iterations 2
smoothSolver:  Solving for Uy, Initial residual = 0.0104962, Final residual = 6.79048e-05, No Iterations 1
GAMG:  Solving for p, Initial residual = 0.000774683, Final residual = 4.28816e-05, No Iterations 4
time step continuity errors : sum local = 3.16616e-07, global = -6.78156e-09, cumulative = 4.58103e-06
ExecutionTime = 7.69 s  ClockTime = 9 s

fieldMinMax minMax write:
    min(mag(U)) = 0 in cell 36960 at location (0.000485708 0 0.05)
    max(mag(U)) = 72.7979 in cell 37866 at location (0.00833079 0.000246581 0.05)

Time = 0.25

smoothSolver:  Solving for Ux, Initial residual = 0.000642483, Final residual = 3.10787e-05, No Iterations 3
smoothSolver:  Solving for Uy, Initial residual = 0.00980064, Final residual = 6.22909e-05, No Iterations 1
GAMG:  Solving for p, Initial residual = 0.00068394, Final residual = 4.57084e-05, No Iterations 5
time step continuity errors : sum local = 3.28571e-07, global = -8.10994e-08, cumulative = 4.49994e-06
ExecutionTime = 7.95 s  ClockTime = 9 s

fieldMinMax minMax write:
    min(mag(U)) = 0 in cell 36960 at location (0.000485708 0 0.05)
    max(mag(U)) = 72.798 in cell 37866 at location (0.00833079 0.000246581 0.05)

Time = 0.26

smoothSolver:  Solving for Ux, Initial residual = 0.0006223, Final residual = 6.0867e-05, No Iterations 2
smoothSolver:  Solving for Uy, Initial residual = 0.00983631, Final residual = 6.50997e-05, No Iterations 1
GAMG:  Solving for p, Initial residual = 0.000687044, Final residual = 5.88641e-05, No Iterations 4
time step continuity errors : sum local = 4.35185e-07, global = -1.19834e-07, cumulative = 4.3801e-06
ExecutionTime = 8.2 s  ClockTime = 9 s

fieldMinMax minMax write:
    min(mag(U)) = 0 in cell 36960 at location (0.000485708 0 0.05)
    max(mag(U)) = 72.7981 in cell 37866 at location (0.00833079 0.000246581 0.05)

Time = 0.27

smoothSolver:  Solving for Ux, Initial residual = 0.000584237, Final residual = 5.78001e-05, No Iterations 2
smoothSolver:  Solving for Uy, Initial residual = 0.00917986, Final residual = 5.79369e-05, No Iterations 1
GAMG:  Solving for p, Initial residual = 0.000637511, Final residual = 3.92283e-05, No Iterations 4
time step continuity errors : sum local = 2.85254e-07, global = -4.20129e-08, cumulative = 4.33809e-06
ExecutionTime = 8.44 s  ClockTime = 9 s

fieldMinMax minMax write:
    min(mag(U)) = 0 in cell 36960 at location (0.000485708 0 0.05)
    max(mag(U)) = 72.7981 in cell 37866 at location (0.00833079 0.000246581 0.05)

Time = 0.28

smoothSolver:  Solving for Ux, Initial residual = 0.000547389, Final residual = 2.64458e-05, No Iterations 3
smoothSolver:  Solving for Uy, Initial residual = 0.00862507, Final residual = 5.35007e-05, No Iterations 1
GAMG:  Solving for p, Initial residual = 0.000576791, Final residual = 3.6893e-05, No Iterations 5
time step continuity errors : sum local = 2.62349e-07, global = -6.89513e-08, cumulative = 4.26914e-06
ExecutionTime = 8.73 s  ClockTime = 10 s

fieldMinMax minMax write:
    min(mag(U)) = 0 in cell 36960 at location (0.000485708 0 0.05)
    max(mag(U)) = 72.7981 in cell 37866 at location (0.00833079 0.000246581 0.05)

Time = 0.29

smoothSolver:  Solving for Ux, Initial residual = 0.000532854, Final residual = 5.18204e-05, No Iterations 2
smoothSolver:  Solving for Uy, Initial residual = 0.00865231, Final residual = 5.62187e-05, No Iterations 1
GAMG:  Solving for p, Initial residual = 0.000577671, Final residual = 4.55238e-05, No Iterations 4
time step continuity errors : sum local = 3.32198e-07, global = -7.99778e-08, cumulative = 4.18916e-06
ExecutionTime = 8.96 s  ClockTime = 10 s

fieldMinMax minMax write:
    min(mag(U)) = 0 in cell 36960 at location (0.000485708 0 0.05)
    max(mag(U)) = 72.7982 in cell 37866 at location (0.00833079 0.000246581 0.05)

Time = 0.3

smoothSolver:  Solving for Ux, Initial residual = 0.000503595, Final residual = 4.93915e-05, No Iterations 2
smoothSolver:  Solving for Uy, Initial residual = 0.0080654, Final residual = 5.00965e-05, No Iterations 1
GAMG:  Solving for p, Initial residual = 0.000531624, Final residual = 3.84484e-05, No Iterations 4
time step continuity errors : sum local = 2.76186e-07, global = -5.17892e-08, cumulative = 4.13737e-06
ExecutionTime = 9.2 s  ClockTime = 10 s

fieldMinMax minMax write:
    min(mag(U)) = 0 in cell 36960 at location (0.000485708 0 0.05)
    max(mag(U)) = 72.7983 in cell 37866 at location (0.00833079 0.000246581 0.05)

Time = 0.31

smoothSolver:  Solving for Ux, Initial residual = 0.000476764, Final residual = 4.71138e-05, No Iterations 2
smoothSolver:  Solving for Uy, Initial residual = 0.00762535, Final residual = 4.66769e-05, No Iterations 1
GAMG:  Solving for p, Initial residual = 0.000484454, Final residual = 4.47165e-05, No Iterations 3
time step continuity errors : sum local = 3.15951e-07, global = -5.94258e-08, cumulative = 4.07794e-06
ExecutionTime = 9.42 s  ClockTime = 10 s

fieldMinMax minMax write:
    min(mag(U)) = 0 in cell 36960 at location (0.000485708 0 0.05)
    max(mag(U)) = 72.7984 in cell 37866 at location (0.00833079 0.000246581 0.05)

Time = 0.32

smoothSolver:  Solving for Ux, Initial residual = 0.000456072, Final residual = 4.49764e-05, No Iterations 2
smoothSolver:  Solving for Uy, Initial residual = 0.00732938, Final residual = 4.47188e-05, No Iterations 1
GAMG:  Solving for p, Initial residual = 0.000467959, Final residual = 4.06635e-05, No Iterations 3
time step continuity errors : sum local = 2.86105e-07, global = -4.68708e-08, cumulative = 4.03107e-06
ExecutionTime = 9.64 s  ClockTime = 11 s

fieldMinMax minMax write:
    min(mag(U)) = 0 in cell 36960 at location (0.000485708 0 0.05)
    max(mag(U)) = 72.7985 in cell 37866 at location (0.00833079 0.000246581 0.05)

Time = 0.33

smoothSolver:  Solving for Ux, Initial residual = 0.000439266, Final residual = 4.29752e-05, No Iterations 2
smoothSolver:  Solving for Uy, Initial residual = 0.00703438, Final residual = 4.28444e-05, No Iterations 1
GAMG:  Solving for p, Initial residual = 0.000437846, Final residual = 3.54819e-05, No Iterations 3
time step continuity errors : sum local = 2.49174e-07, global = -3.10054e-08, cumulative = 4.00007e-06
ExecutionTime = 9.86 s  ClockTime = 11 s

fieldMinMax minMax write:
    min(mag(U)) = 0 in cell 36960 at location (0.000485708 0 0.05)
    max(mag(U)) = 72.7986 in cell 37866 at location (0.00833079 0.000246581 0.05)

Time = 0.34

smoothSolver:  Solving for Ux, Initial residual = 0.000423824, Final residual = 4.10955e-05, No Iterations 2
smoothSolver:  Solving for Uy, Initial residual = 0.0067492, Final residual = 4.11421e-05, No Iterations 1
GAMG:  Solving for p, Initial residual = 0.000412051, Final residual = 3.24906e-05, No Iterations 3
time step continuity errors : sum local = 2.2793e-07, global = -2.16866e-08, cumulative = 3.97838e-06
ExecutionTime = 10.08 s  ClockTime = 11 s

fieldMinMax minMax write:
    min(mag(U)) = 0 in cell 36960 at location (0.000485708 0 0.05)
    max(mag(U)) = 72.7987 in cell 37866 at location (0.00833079 0.000246581 0.05)

Time = 0.35

smoothSolver:  Solving for Ux, Initial residual = 0.000409106, Final residual = 3.93267e-05, No Iterations 2
smoothSolver:  Solving for Uy, Initial residual = 0.00647096, Final residual = 3.95541e-05, No Iterations 1
GAMG:  Solving for p, Initial residual = 0.000390017, Final residual = 3.1566e-05, No Iterations 3
time step continuity errors : sum local = 2.21211e-07, global = -1.90371e-08, cumulative = 3.95934e-06
ExecutionTime = 10.3 s  ClockTime = 11 s

fieldMinMax minMax write:
    min(mag(U)) = 0 in cell 36960 at location (0.000485708 0 0.05)
    max(mag(U)) = 72.7989 in cell 37866 at location (0.00833079 0.000246581 0.05)

Time = 0.36

smoothSolver:  Solving for Ux, Initial residual = 0.000395026, Final residual = 3.76599e-05, No Iterations 2
smoothSolver:  Solving for Uy, Initial residual = 0.00619923, Final residual = 3.80416e-05, No Iterations 1
GAMG:  Solving for p, Initial residual = 0.000370337, Final residual = 3.14677e-05, No Iterations 3
time step continuity errors : sum local = 2.20226e-07, global = -2.10105e-08, cumulative = 3.93833e-06
ExecutionTime = 10.52 s  ClockTime = 11 s

fieldMinMax minMax write:
    min(mag(U)) = 0 in cell 36960 at location (0.000485708 0 0.05)
    max(mag(U)) = 72.799 in cell 37866 at location (0.00833079 0.000246581 0.05)

Time = 0.37

smoothSolver:  Solving for Ux, Initial residual = 0.000381426, Final residual = 3.60879e-05, No Iterations 2
smoothSolver:  Solving for Uy, Initial residual = 0.00593625, Final residual = 3.66067e-05, No Iterations 1
GAMG:  Solving for p, Initial residual = 0.000354878, Final residual = 2.99082e-05, No Iterations 3
time step continuity errors : sum local = 2.08968e-07, global = -1.71883e-08, cumulative = 3.92115e-06
ExecutionTime = 10.75 s  ClockTime = 12 s

fieldMinMax minMax write:
    min(mag(U)) = 0 in cell 36960 at location (0.000485708 0 0.05)
    max(mag(U)) = 72.7992 in cell 37866 at location (0.00833079 0.000246581 0.05)

Time = 0.38

smoothSolver:  Solving for Ux, Initial residual = 0.000368412, Final residual = 3.46024e-05, No Iterations 2
smoothSolver:  Solving for Uy, Initial residual = 0.00568491, Final residual = 3.52669e-05, No Iterations 1
GAMG:  Solving for p, Initial residual = 0.000338357, Final residual = 2.852e-05, No Iterations 3
time step continuity errors : sum local = 1.99023e-07, global = -1.71235e-08, cumulative = 3.90402e-06
ExecutionTime = 10.98 s  ClockTime = 12 s

fieldMinMax minMax write:
    min(mag(U)) = 0 in cell 36960 at location (0.000485708 0 0.05)
    max(mag(U)) = 72.7993 in cell 37866 at location (0.00833079 0.000246581 0.05)

Time = 0.39

smoothSolver:  Solving for Ux, Initial residual = 0.000355951, Final residual = 3.31966e-05, No Iterations 2
smoothSolver:  Solving for Uy, Initial residual = 0.00544409, Final residual = 3.40188e-05, No Iterations 1
GAMG:  Solving for p, Initial residual = 0.000322832, Final residual = 2.71219e-05, No Iterations 3
time step continuity errors : sum local = 1.89144e-07, global = -1.54527e-08, cumulative = 3.88857e-06
ExecutionTime = 11.22 s  ClockTime = 12 s

fieldMinMax minMax write:
    min(mag(U)) = 0 in cell 36960 at location (0.000485708 0 0.05)
    max(mag(U)) = 72.7995 in cell 37866 at location (0.00833079 0.000246581 0.05)

Time = 0.4

smoothSolver:  Solving for Ux, Initial residual = 0.000343895, Final residual = 3.18648e-05, No Iterations 2
smoothSolver:  Solving for Uy, Initial residual = 0.00521343, Final residual = 3.28453e-05, No Iterations 1
GAMG:  Solving for p, Initial residual = 0.000308057, Final residual = 2.53105e-05, No Iterations 3
time step continuity errors : sum local = 1.76467e-07, global = -8.4472e-09, cumulative = 3.88012e-06
ExecutionTime = 11.45 s  ClockTime = 12 s

fieldMinMax minMax write:
    min(mag(U)) = 0 in cell 36960 at location (0.000485708 0 0.05)
    max(mag(U)) = 72.7996 in cell 37866 at location (0.00833079 0.000246581 0.05)

Time = 0.41

smoothSolver:  Solving for Ux, Initial residual = 0.000332214, Final residual = 3.06011e-05, No Iterations 2
smoothSolver:  Solving for Uy, Initial residual = 0.00499359, Final residual = 3.17396e-05, No Iterations 1
GAMG:  Solving for p, Initial residual = 0.00029373, Final residual = 2.51575e-05, No Iterations 3
time step continuity errors : sum local = 1.75452e-07, global = -1.5062e-08, cumulative = 3.86506e-06
ExecutionTime = 11.69 s  ClockTime = 13 s

fieldMinMax minMax write:
    min(mag(U)) = 0 in cell 36960 at location (0.000485708 0 0.05)
    max(mag(U)) = 72.7997 in cell 37866 at location (0.00833079 0.000246581 0.05)

Time = 0.42

smoothSolver:  Solving for Ux, Initial residual = 0.000320838, Final residual = 2.94002e-05, No Iterations 2
smoothSolver:  Solving for Uy, Initial residual = 0.00478386, Final residual = 3.06924e-05, No Iterations 1
GAMG:  Solving for p, Initial residual = 0.000281224, Final residual = 2.33717e-05, No Iterations 3
time step continuity errors : sum local = 1.63108e-07, global = -6.19896e-09, cumulative = 3.85886e-06
ExecutionTime = 11.92 s  ClockTime = 13 s

fieldMinMax minMax write:
    min(mag(U)) = 0 in cell 36960 at location (0.000485708 0 0.05)
    max(mag(U)) = 72.7998 in cell 37866 at location (0.00833079 0.000246581 0.05)

Time = 0.43

smoothSolver:  Solving for Ux, Initial residual = 0.000309772, Final residual = 2.82574e-05, No Iterations 2
smoothSolver:  Solving for Uy, Initial residual = 0.00458522, Final residual = 2.96896e-05, No Iterations 1
GAMG:  Solving for p, Initial residual = 0.000268303, Final residual = 2.31224e-05, No Iterations 3
time step continuity errors : sum local = 1.61548e-07, global = -1.5222e-08, cumulative = 3.84364e-06
ExecutionTime = 12.15 s  ClockTime = 13 s

fieldMinMax minMax write:
    min(mag(U)) = 0 in cell 36960 at location (0.000485708 0 0.05)
    max(mag(U)) = 72.7999 in cell 37866 at location (0.00833079 0.000246581 0.05)

Time = 0.44

smoothSolver:  Solving for Ux, Initial residual = 0.000298899, Final residual = 2.71679e-05, No Iterations 2
smoothSolver:  Solving for Uy, Initial residual = 0.00439634, Final residual = 2.87328e-05, No Iterations 1
GAMG:  Solving for p, Initial residual = 0.000257145, Final residual = 2.11304e-05, No Iterations 3
time step continuity errors : sum local = 1.47848e-07, global = -6.69342e-09, cumulative = 3.83695e-06
ExecutionTime = 12.38 s  ClockTime = 13 s

fieldMinMax minMax write:
    min(mag(U)) = 0 in cell 36960 at location (0.000485708 0 0.05)
    max(mag(U)) = 72.8 in cell 37866 at location (0.00833079 0.000246581 0.05)

Time = 0.45

smoothSolver:  Solving for Ux, Initial residual = 0.000288221, Final residual = 2.61278e-05, No Iterations 2
smoothSolver:  Solving for Uy, Initial residual = 0.00421749, Final residual = 2.78062e-05, No Iterations 1
GAMG:  Solving for p, Initial residual = 0.000244857, Final residual = 2.04022e-05, No Iterations 3
time step continuity errors : sum local = 1.4305e-07, global = -1.60986e-08, cumulative = 3.82085e-06
ExecutionTime = 12.61 s  ClockTime = 14 s

fieldMinMax minMax write:
    min(mag(U)) = 0 in cell 36960 at location (0.000485708 0 0.05)
    max(mag(U)) = 72.8001 in cell 37866 at location (0.00833079 0.000246581 0.05)

Time = 0.46

smoothSolver:  Solving for Ux, Initial residual = 0.000277632, Final residual = 2.51337e-05, No Iterations 2
smoothSolver:  Solving for Uy, Initial residual = 0.00404664, Final residual = 2.69104e-05, No Iterations 1
GAMG:  Solving for p, Initial residual = 0.000233337, Final residual = 1.83185e-05, No Iterations 3
time step continuity errors : sum local = 1.2874e-07, global = -1.00841e-08, cumulative = 3.81076e-06
ExecutionTime = 12.85 s  ClockTime = 14 s

fieldMinMax minMax write:
    min(mag(U)) = 0 in cell 36960 at location (0.000485708 0 0.05)
    max(mag(U)) = 72.8001 in cell 37866 at location (0.00833079 0.000246581 0.05)

Time = 0.47

smoothSolver:  Solving for Ux, Initial residual = 0.000267275, Final residual = 2.41833e-05, No Iterations 2
smoothSolver:  Solving for Uy, Initial residual = 0.00388421, Final residual = 2.60345e-05, No Iterations 1
GAMG:  Solving for p, Initial residual = 0.000221368, Final residual = 1.73067e-05, No Iterations 3
time step continuity errors : sum local = 1.21981e-07, global = -1.77589e-08, cumulative = 3.793e-06
ExecutionTime = 13.08 s  ClockTime = 14 s

fieldMinMax minMax write:
    min(mag(U)) = 0 in cell 36960 at location (0.000485708 0 0.05)
    max(mag(U)) = 72.8002 in cell 37866 at location (0.00833079 0.000246581 0.05)

Time = 0.48

smoothSolver:  Solving for Ux, Initial residual = 0.000256942, Final residual = 2.32742e-05, No Iterations 2
smoothSolver:  Solving for Uy, Initial residual = 0.00372894, Final residual = 2.51813e-05, No Iterations 1
GAMG:  Solving for p, Initial residual = 0.000210049, Final residual = 1.58024e-05, No Iterations 3
time step continuity errors : sum local = 1.11724e-07, global = -1.48157e-08, cumulative = 3.77819e-06
ExecutionTime = 13.31 s  ClockTime = 14 s

fieldMinMax minMax write:
    min(mag(U)) = 0 in cell 36960 at location (0.000485708 0 0.05)
    max(mag(U)) = 72.8002 in cell 37866 at location (0.00833079 0.000246581 0.05)

Time = 0.49

smoothSolver:  Solving for Ux, Initial residual = 0.000246728, Final residual = 2.24041e-05, No Iterations 2
smoothSolver:  Solving for Uy, Initial residual = 0.00358077, Final residual = 2.43372e-05, No Iterations 1
GAMG:  Solving for p, Initial residual = 0.000198811, Final residual = 1.49793e-05, No Iterations 3
time step continuity errors : sum local = 1.06287e-07, global = -2.10929e-08, cumulative = 3.75709e-06
ExecutionTime = 13.54 s  ClockTime = 15 s

fieldMinMax minMax write:
    min(mag(U)) = 0 in cell 36960 at location (0.000485708 0 0.05)
    max(mag(U)) = 72.8002 in cell 37866 at location (0.00833079 0.000246581 0.05)

Time = 0.5

smoothSolver:  Solving for Ux, Initial residual = 0.000236811, Final residual = 2.15705e-05, No Iterations 2
smoothSolver:  Solving for Uy, Initial residual = 0.00343802, Final residual = 2.35045e-05, No Iterations 1
GAMG:  Solving for p, Initial residual = 0.000188372, Final residual = 1.37504e-05, No Iterations 3
time step continuity errors : sum local = 9.7932e-08, global = -2.02974e-08, cumulative = 3.7368e-06
ExecutionTime = 14.18 s  ClockTime = 16 s

fieldMinMax minMax write:
    min(mag(U)) = 0 in cell 36960 at location (0.000485708 0 0.05)
    max(mag(U)) = 72.8002 in cell 37866 at location (0.00833079 0.000246581 0.05)

yPlus yPlus write:
    writing field yPlus
    patch topWall y+ : min = 0.0301046, max = 0.344196, average = 0.269304
    patch bottomWall y+ : min = 2.86863, max = 15.2401, average = 4.53282
writeCellCentres writeCellCentres write:
    writing cell-volumes field C to 0.5
    Writing the x component field of the cell-centres Cx to 0.5
    Writing the y component field of the cell-centres Cy to 0.5
    Writing the z component field of the cell-centres Cz to 0.5
wallShearStress wallShearStress write:
    writing field wallShearStress
    min/max(topWall) = (-2.82919e-09 -1.13348e-06 0), (5.96239e-09 -9.10459e-09 0)
    min/max(bottomWall) = (-18.7787 -0.20814 0), (-0.665266 0.017054 0)
Time = 0.51

smoothSolver:  Solving for Ux, Initial residual = 0.000227357, Final residual = 2.07717e-05, No Iterations 2
smoothSolver:  Solving for Uy, Initial residual = 0.00329996, Final residual = 2.26771e-05, No Iterations 1
GAMG:  Solving for p, Initial residual = 0.000178538, Final residual = 1.29529e-05, No Iterations 3
time step continuity errors : sum local = 9.2633e-08, global = -2.51288e-08, cumulative = 3.71167e-06
ExecutionTime = 14.77 s  ClockTime = 16 s

fieldMinMax minMax write:
    min(mag(U)) = 0 in cell 36960 at location (0.000485708 0 0.05)
    max(mag(U)) = 72.8002 in cell 37866 at location (0.00833079 0.000246581 0.05)

Time = 0.52

smoothSolver:  Solving for Ux, Initial residual = 0.000218181, Final residual = 2.00061e-05, No Iterations 2
smoothSolver:  Solving for Uy, Initial residual = 0.00316381, Final residual = 2.18566e-05, No Iterations 1
GAMG:  Solving for p, Initial residual = 0.000169771, Final residual = 1.1714e-05, No Iterations 3
time step continuity errors : sum local = 8.412e-08, global = -1.51603e-08, cumulative = 3.69651e-06
ExecutionTime = 15.01 s  ClockTime = 17 s

fieldMinMax minMax write:
    min(mag(U)) = 0 in cell 36960 at location (0.000485708 0 0.05)
    max(mag(U)) = 72.8001 in cell 37866 at location (0.00833079 0.000246581 0.05)

Time = 0.53

smoothSolver:  Solving for Ux, Initial residual = 0.000209584, Final residual = 1.92724e-05, No Iterations 2
smoothSolver:  Solving for Uy, Initial residual = 0.00302923, Final residual = 2.10386e-05, No Iterations 1
GAMG:  Solving for p, Initial residual = 0.000161226, Final residual = 1.13802e-05, No Iterations 3
time step continuity errors : sum local = 8.21016e-08, global = -2.68506e-08, cumulative = 3.66966e-06
ExecutionTime = 15.25 s  ClockTime = 17 s

fieldMinMax minMax write:
    min(mag(U)) = 0 in cell 36960 at location (0.000485708 0 0.05)
    max(mag(U)) = 72.8001 in cell 37866 at location (0.00833079 0.000246581 0.05)

Time = 0.54

smoothSolver:  Solving for Ux, Initial residual = 0.000201353, Final residual = 1.85692e-05, No Iterations 2
smoothSolver:  Solving for Uy, Initial residual = 0.00289043, Final residual = 2.02191e-05, No Iterations 1
GAMG:  Solving for p, Initial residual = 0.000154194, Final residual = 1.41387e-05, No Iterations 3
time step continuity errors : sum local = 1.02413e-07, global = 2.04441e-08, cumulative = 3.6901e-06
ExecutionTime = 15.48 s  ClockTime = 17 s

fieldMinMax minMax write:
    min(mag(U)) = 0 in cell 36960 at location (0.000485708 0 0.05)
    max(mag(U)) = 72.8001 in cell 37866 at location (0.00833079 0.000246581 0.05)

Time = 0.55

smoothSolver:  Solving for Ux, Initial residual = 0.00019392, Final residual = 1.78953e-05, No Iterations 2
smoothSolver:  Solving for Uy, Initial residual = 0.00275278, Final residual = 1.93991e-05, No Iterations 1
GAMG:  Solving for p, Initial residual = 0.000150333, Final residual = 1.37816e-05, No Iterations 3
time step continuity errors : sum local = 1.00319e-07, global = -2.40068e-08, cumulative = 3.6661e-06
ExecutionTime = 15.72 s  ClockTime = 17 s

fieldMinMax minMax write:
    min(mag(U)) = 0 in cell 36960 at location (0.000485708 0 0.05)
    max(mag(U)) = 72.8 in cell 37866 at location (0.00833079 0.000246581 0.05)

Time = 0.56

smoothSolver:  Solving for Ux, Initial residual = 0.000186718, Final residual = 1.72491e-05, No Iterations 2
smoothSolver:  Solving for Uy, Initial residual = 0.0026106, Final residual = 1.85972e-05, No Iterations 1
GAMG:  Solving for p, Initial residual = 0.000145976, Final residual = 9.62527e-06, No Iterations 4
time step continuity errors : sum local = 7.03368e-08, global = -2.59403e-08, cumulative = 3.64015e-06
ExecutionTime = 15.99 s  ClockTime = 18 s

fieldMinMax minMax write:
    min(mag(U)) = 0 in cell 36960 at location (0.000485708 0 0.05)
    max(mag(U)) = 72.8 in cell 37866 at location (0.00833079 0.000246581 0.05)

Time = 0.57

smoothSolver:  Solving for Ux, Initial residual = 0.000180605, Final residual = 1.66293e-05, No Iterations 2
smoothSolver:  Solving for Uy, Initial residual = 0.00246555, Final residual = 1.77833e-05, No Iterations 1
GAMG:  Solving for p, Initial residual = 0.000136323, Final residual = 1.03161e-05, No Iterations 4
time step continuity errors : sum local = 7.57578e-08, global = -2.69785e-08, cumulative = 3.61318e-06
ExecutionTime = 16.24 s  ClockTime = 18 s

fieldMinMax minMax write:
    min(mag(U)) = 0 in cell 36960 at location (0.000485708 0 0.05)
    max(mag(U)) = 72.7999 in cell 37866 at location (0.00833079 0.000246581 0.05)

Time = 0.58

smoothSolver:  Solving for Ux, Initial residual = 0.000174498, Final residual = 1.60336e-05, No Iterations 2
smoothSolver:  Solving for Uy, Initial residual = 0.00231738, Final residual = 1.69979e-05, No Iterations 1
GAMG:  Solving for p, Initial residual = 0.0001332, Final residual = 1.1204e-05, No Iterations 4
time step continuity errors : sum local = 8.2633e-08, global = -2.73513e-08, cumulative = 3.58583e-06
ExecutionTime = 16.49 s  ClockTime = 18 s

fieldMinMax minMax write:
    min(mag(U)) = 0 in cell 36960 at location (0.000485708 0 0.05)
    max(mag(U)) = 72.7999 in cell 37866 at location (0.00833079 0.000246581 0.05)

Time = 0.59

smoothSolver:  Solving for Ux, Initial residual = 0.000168826, Final residual = 1.54602e-05, No Iterations 2
smoothSolver:  Solving for Uy, Initial residual = 0.00216926, Final residual = 1.6224e-05, No Iterations 1
GAMG:  Solving for p, Initial residual = 0.000129921, Final residual = 1.14603e-05, No Iterations 4
time step continuity errors : sum local = 8.49004e-08, global = -2.72165e-08, cumulative = 3.55861e-06
ExecutionTime = 16.76 s  ClockTime = 18 s

fieldMinMax minMax write:
    min(mag(U)) = 0 in cell 36960 at location (0.000485708 0 0.05)
    max(mag(U)) = 72.7998 in cell 37866 at location (0.00833079 0.000246581 0.05)

Time = 0.6

smoothSolver:  Solving for Ux, Initial residual = 0.000163374, Final residual = 1.49072e-05, No Iterations 2
smoothSolver:  Solving for Uy, Initial residual = 0.00202167, Final residual = 1.54751e-05, No Iterations 1
GAMG:  Solving for p, Initial residual = 0.000125824, Final residual = 1.14574e-05, No Iterations 4
time step continuity errors : sum local = 8.52516e-08, global = -2.68287e-08, cumulative = 3.53178e-06
ExecutionTime = 17.01 s  ClockTime = 19 s

fieldMinMax minMax write:
    min(mag(U)) = 0 in cell 36960 at location (0.000485708 0 0.05)
    max(mag(U)) = 72.7997 in cell 37866 at location (0.00833079 0.000246581 0.05)

Time = 0.61

smoothSolver:  Solving for Ux, Initial residual = 0.000158051, Final residual = 1.43729e-05, No Iterations 2
smoothSolver:  Solving for Uy, Initial residual = 0.00187495, Final residual = 1.47522e-05, No Iterations 1
GAMG:  Solving for p, Initial residual = 0.000121402, Final residual = 1.13371e-05, No Iterations 4
time step continuity errors : sum local = 8.47122e-08, global = -2.63061e-08, cumulative = 3.50547e-06
ExecutionTime = 17.27 s  ClockTime = 19 s

fieldMinMax minMax write:
    min(mag(U)) = 0 in cell 36960 at location (0.000485708 0 0.05)
    max(mag(U)) = 72.7997 in cell 37866 at location (0.00833079 0.000246581 0.05)

Time = 0.62

smoothSolver:  Solving for Ux, Initial residual = 0.000152846, Final residual = 1.38557e-05, No Iterations 2
smoothSolver:  Solving for Uy, Initial residual = 0.00173202, Final residual = 1.40591e-05, No Iterations 1
GAMG:  Solving for p, Initial residual = 0.000116784, Final residual = 1.11085e-05, No Iterations 4
time step continuity errors : sum local = 8.33411e-08, global = -2.56109e-08, cumulative = 3.47986e-06
ExecutionTime = 17.52 s  ClockTime = 19 s

fieldMinMax minMax write:
    min(mag(U)) = 0 in cell 36960 at location (0.000485708 0 0.05)
    max(mag(U)) = 72.7996 in cell 37866 at location (0.00833079 0.000246581 0.05)

Time = 0.63

smoothSolver:  Solving for Ux, Initial residual = 0.000147736, Final residual = 1.33547e-05, No Iterations 2
smoothSolver:  Solving for Uy, Initial residual = 0.0015957, Final residual = 1.34009e-05, No Iterations 1
GAMG:  Solving for p, Initial residual = 0.000112349, Final residual = 1.07773e-05, No Iterations 4
time step continuity errors : sum local = 8.11745e-08, global = -2.47508e-08, cumulative = 3.45511e-06
ExecutionTime = 17.79 s  ClockTime = 19 s

fieldMinMax minMax write:
    min(mag(U)) = 0 in cell 36960 at location (0.000485708 0 0.05)
    max(mag(U)) = 72.7996 in cell 37866 at location (0.00833079 0.000246581 0.05)

Time = 0.64

smoothSolver:  Solving for Ux, Initial residual = 0.000142601, Final residual = 1.28692e-05, No Iterations 2
smoothSolver:  Solving for Uy, Initial residual = 0.00146814, Final residual = 1.27806e-05, No Iterations 1
GAMG:  Solving for p, Initial residual = 0.00010774, Final residual = 1.03657e-05, No Iterations 4
time step continuity errors : sum local = 7.83713e-08, global = -2.37605e-08, cumulative = 3.43135e-06
ExecutionTime = 18.04 s  ClockTime = 20 s

fieldMinMax minMax write:
    min(mag(U)) = 0 in cell 36960 at location (0.000485708 0 0.05)
    max(mag(U)) = 72.7995 in cell 37866 at location (0.00833079 0.000246581 0.05)

Time = 0.65

smoothSolver:  Solving for Ux, Initial residual = 0.000137315, Final residual = 1.23989e-05, No Iterations 2
smoothSolver:  Solving for Uy, Initial residual = 0.001351, Final residual = 1.22006e-05, No Iterations 1
GAMG:  Solving for p, Initial residual = 0.000103055, Final residual = 9.90069e-06, No Iterations 4
time step continuity errors : sum local = 7.51291e-08, global = -2.26819e-08, cumulative = 3.40867e-06
ExecutionTime = 18.3 s  ClockTime = 20 s

fieldMinMax minMax write:
    min(mag(U)) = 0 in cell 36960 at location (0.000485708 0 0.05)
    max(mag(U)) = 72.7994 in cell 37866 at location (0.00833079 0.000246581 0.05)

Time = 0.66

smoothSolver:  Solving for Ux, Initial residual = 0.000131826, Final residual = 1.19432e-05, No Iterations 2
smoothSolver:  Solving for Uy, Initial residual = 0.0012455, Final residual = 1.16625e-05, No Iterations 1
GAMG:  Solving for p, Initial residual = 9.8427e-05, Final residual = 9.4033e-06, No Iterations 4
time step continuity errors : sum local = 7.16056e-08, global = -2.15568e-08, cumulative = 3.38711e-06
ExecutionTime = 18.55 s  ClockTime = 20 s

fieldMinMax minMax write:
    min(mag(U)) = 0 in cell 36960 at location (0.000485708 0 0.05)
    max(mag(U)) = 72.7994 in cell 37866 at location (0.00833079 0.000246581 0.05)

Time = 0.67

smoothSolver:  Solving for Ux, Initial residual = 0.000126158, Final residual = 1.15021e-05, No Iterations 2
smoothSolver:  Solving for Uy, Initial residual = 0.00115234, Final residual = 1.11665e-05, No Iterations 1
GAMG:  Solving for p, Initial residual = 9.37788e-05, Final residual = 8.89112e-06, No Iterations 4
time step continuity errors : sum local = 6.79335e-08, global = -2.04239e-08, cumulative = 3.36669e-06
ExecutionTime = 18.81 s  ClockTime = 21 s

fieldMinMax minMax write:
    min(mag(U)) = 0 in cell 36960 at location (0.000485708 0 0.05)
    max(mag(U)) = 72.7993 in cell 37866 at location (0.00833079 0.000246581 0.05)

Time = 0.68

smoothSolver:  Solving for Ux, Initial residual = 0.000120368, Final residual = 1.10753e-05, No Iterations 2
smoothSolver:  Solving for Uy, Initial residual = 0.00107165, Final residual = 1.07121e-05, No Iterations 1
GAMG:  Solving for p, Initial residual = 8.90961e-05, Final residual = 8.37914e-06, No Iterations 4
time step continuity errors : sum local = 6.42286e-08, global = -1.93153e-08, cumulative = 3.34737e-06
ExecutionTime = 19.08 s  ClockTime = 21 s

fieldMinMax minMax write:
    min(mag(U)) = 0 in cell 36960 at location (0.000485708 0 0.05)
    max(mag(U)) = 72.7993 in cell 37866 at location (0.00833079 0.000246581 0.05)

Time = 0.69

smoothSolver:  Solving for Ux, Initial residual = 0.000114523, Final residual = 1.06626e-05, No Iterations 2
smoothSolver:  Solving for Uy, Initial residual = 0.00100314, Final residual = 1.02977e-05, No Iterations 1
GAMG:  Solving for p, Initial residual = 8.43904e-05, Final residual = 7.87803e-06, No Iterations 4
time step continuity errors : sum local = 6.05744e-08, global = -1.8255e-08, cumulative = 3.32912e-06
ExecutionTime = 19.34 s  ClockTime = 21 s

fieldMinMax minMax write:
    min(mag(U)) = 0 in cell 36960 at location (0.000485708 0 0.05)
    max(mag(U)) = 72.7992 in cell 37866 at location (0.00833079 0.000246581 0.05)

Time = 0.7

smoothSolver:  Solving for Ux, Initial residual = 0.000108694, Final residual = 1.02637e-05, No Iterations 2
smoothSolver:  Solving for Uy, Initial residual = 0.000946121, Final residual = 9.92101e-06, No Iterations 1
GAMG:  Solving for p, Initial residual = 7.97065e-05, Final residual = 7.39503e-06, No Iterations 4
time step continuity errors : sum local = 5.70292e-08, global = -1.72585e-08, cumulative = 3.31186e-06
ExecutionTime = 19.63 s  ClockTime = 21 s

fieldMinMax minMax write:
    min(mag(U)) = 0 in cell 36960 at location (0.000485708 0 0.05)
    max(mag(U)) = 72.7992 in cell 37866 at location (0.00833079 0.000246581 0.05)

Time = 0.71

smoothSolver:  Solving for Ux, Initial residual = 0.000102948, Final residual = 9.8785e-06, No Iterations 2
smoothSolver:  Solving for Uy, Initial residual = 0.000899645, Final residual = 9.57884e-06, No Iterations 1
GAMG:  Solving for p, Initial residual = 7.52816e-05, Final residual = 6.93316e-06, No Iterations 4
time step continuity errors : sum local = 5.36192e-08, global = -1.63347e-08, cumulative = 3.29553e-06
ExecutionTime = 19.95 s  ClockTime = 22 s

fieldMinMax minMax write:
    min(mag(U)) = 0 in cell 36960 at location (0.000485708 0 0.05)
    max(mag(U)) = 72.7991 in cell 37866 at location (0.00833079 0.000246581 0.05)

Time = 0.72

smoothSolver:  Solving for Ux, Initial residual = 9.73469e-05, Final residual = 9.5067e-06, No Iterations 2
smoothSolver:  Solving for Uy, Initial residual = 0.000862557, Final residual = 9.26768e-06, No Iterations 1
GAMG:  Solving for p, Initial residual = 7.12061e-05, Final residual = 6.49564e-06, No Iterations 4
time step continuity errors : sum local = 5.03722e-08, global = -1.54871e-08, cumulative = 3.28004e-06
ExecutionTime = 20.21 s  ClockTime = 22 s

fieldMinMax minMax write:
    min(mag(U)) = 0 in cell 36960 at location (0.000485708 0 0.05)
    max(mag(U)) = 72.7991 in cell 37866 at location (0.00833079 0.000246581 0.05)

Time = 0.73

smoothSolver:  Solving for Ux, Initial residual = 9.19425e-05, Final residual = 9.14803e-06, No Iterations 2
smoothSolver:  Solving for Uy, Initial residual = 0.000833627, Final residual = 8.98324e-06, No Iterations 1
GAMG:  Solving for p, Initial residual = 6.73549e-05, Final residual = 6.08387e-06, No Iterations 4
time step continuity errors : sum local = 4.73019e-08, global = -1.47155e-08, cumulative = 3.26532e-06
ExecutionTime = 20.48 s  ClockTime = 22 s

fieldMinMax minMax write:
    min(mag(U)) = 0 in cell 36960 at location (0.000485708 0 0.05)
    max(mag(U)) = 72.7991 in cell 37866 at location (0.00833079 0.000246581 0.05)

Time = 0.74

smoothSolver:  Solving for Ux, Initial residual = 8.67782e-05, Final residual = 4.37381e-06, No Iterations 3
smoothSolver:  Solving for Uy, Initial residual = 0.000810194, Final residual = 8.72051e-06, No Iterations 1
GAMG:  Solving for p, Initial residual = 7.32828e-05, Final residual = 7.26037e-06, No Iterations 7
time step continuity errors : sum local = 5.65895e-08, global = 1.87654e-08, cumulative = 3.28409e-06
ExecutionTime = 20.83 s  ClockTime = 23 s

fieldMinMax minMax write:
    min(mag(U)) = 0 in cell 36960 at location (0.000485708 0 0.05)
    max(mag(U)) = 72.799 in cell 37866 at location (0.00833079 0.000246581 0.05)

Time = 0.75

smoothSolver:  Solving for Ux, Initial residual = 8.35595e-05, Final residual = 4.18437e-06, No Iterations 3
smoothSolver:  Solving for Uy, Initial residual = 0.000802926, Final residual = 9.48139e-06, No Iterations 1
GAMG:  Solving for p, Initial residual = 6.26276e-05, Final residual = 4.00182e-06, No Iterations 3
time step continuity errors : sum local = 3.14835e-08, global = -1.10574e-08, cumulative = 3.27303e-06
ExecutionTime = 21.08 s  ClockTime = 23 s

fieldMinMax minMax write:
    min(mag(U)) = 0 in cell 36960 at location (0.000485708 0 0.05)
    max(mag(U)) = 72.799 in cell 37866 at location (0.00833079 0.000246581 0.05)

Time = 0.76

smoothSolver:  Solving for Ux, Initial residual = 7.86402e-05, Final residual = 4.00407e-06, No Iterations 3
smoothSolver:  Solving for Uy, Initial residual = 0.000783544, Final residual = 9.35168e-06, No Iterations 1
GAMG:  Solving for p, Initial residual = 5.92252e-05, Final residual = 4.30231e-06, No Iterations 4
time step continuity errors : sum local = 3.39058e-08, global = -1.28772e-08, cumulative = 3.26015e-06
ExecutionTime = 21.34 s  ClockTime = 23 s

fieldMinMax minMax write:
    min(mag(U)) = 0 in cell 36960 at location (0.000485708 0 0.05)
    max(mag(U)) = 72.7989 in cell 37866 at location (0.00833079 0.000246581 0.05)

Time = 0.77

smoothSolver:  Solving for Ux, Initial residual = 7.41158e-05, Final residual = 3.83178e-06, No Iterations 3
smoothSolver:  Solving for Uy, Initial residual = 0.000763785, Final residual = 9.0959e-06, No Iterations 1
GAMG:  Solving for p, Initial residual = 5.62428e-05, Final residual = 4.76007e-06, No Iterations 4
time step continuity errors : sum local = 3.75934e-08, global = -1.22792e-08, cumulative = 3.24787e-06
ExecutionTime = 21.61 s  ClockTime = 23 s

fieldMinMax minMax write:
    min(mag(U)) = 0 in cell 36960 at location (0.000485708 0 0.05)
    max(mag(U)) = 72.7989 in cell 37866 at location (0.00833079 0.000246581 0.05)

Time = 0.78

smoothSolver:  Solving for Ux, Initial residual = 7.0075e-05, Final residual = 3.66695e-06, No Iterations 3
smoothSolver:  Solving for Uy, Initial residual = 0.000748474, Final residual = 8.83441e-06, No Iterations 1
GAMG:  Solving for p, Initial residual = 5.38089e-05, Final residual = 4.26154e-06, No Iterations 4
time step continuity errors : sum local = 3.37387e-08, global = -1.2055e-08, cumulative = 3.23582e-06
ExecutionTime = 21.85 s  ClockTime = 24 s

fieldMinMax minMax write:
    min(mag(U)) = 0 in cell 36960 at location (0.000485708 0 0.05)
    max(mag(U)) = 72.7989 in cell 37866 at location (0.00833079 0.000246581 0.05)

Time = 0.79

smoothSolver:  Solving for Ux, Initial residual = 6.63562e-05, Final residual = 3.50917e-06, No Iterations 3
smoothSolver:  Solving for Uy, Initial residual = 0.00073509, Final residual = 8.57711e-06, No Iterations 1
GAMG:  Solving for p, Initial residual = 5.10063e-05, Final residual = 3.79312e-06, No Iterations 4
time step continuity errors : sum local = 3.00964e-08, global = -1.17856e-08, cumulative = 3.22403e-06
ExecutionTime = 22.11 s  ClockTime = 24 s

fieldMinMax minMax write:
    min(mag(U)) = 0 in cell 36960 at location (0.000485708 0 0.05)
    max(mag(U)) = 72.7989 in cell 37866 at location (0.00833079 0.000246581 0.05)

Time = 0.8

smoothSolver:  Solving for Ux, Initial residual = 6.29373e-05, Final residual = 3.35801e-06, No Iterations 3
smoothSolver:  Solving for Uy, Initial residual = 0.000721324, Final residual = 8.32275e-06, No Iterations 1
GAMG:  Solving for p, Initial residual = 4.85226e-05, Final residual = 3.48448e-06, No Iterations 4
time step continuity errors : sum local = 2.77025e-08, global = -1.12972e-08, cumulative = 3.21274e-06
ExecutionTime = 22.37 s  ClockTime = 24 s

fieldMinMax minMax write:
    min(mag(U)) = 0 in cell 36960 at location (0.000485708 0 0.05)
    max(mag(U)) = 72.7988 in cell 37866 at location (0.00833079 0.000246581 0.05)

Time = 0.81

smoothSolver:  Solving for Ux, Initial residual = 5.98395e-05, Final residual = 3.2131e-06, No Iterations 3
smoothSolver:  Solving for Uy, Initial residual = 0.000707504, Final residual = 8.07447e-06, No Iterations 1
GAMG:  Solving for p, Initial residual = 4.63528e-05, Final residual = 3.23713e-06, No Iterations 4
time step continuity errors : sum local = 2.57848e-08, global = -1.07809e-08, cumulative = 3.20196e-06
ExecutionTime = 22.61 s  ClockTime = 24 s

fieldMinMax minMax write:
    min(mag(U)) = 0 in cell 36960 at location (0.000485708 0 0.05)
    max(mag(U)) = 72.7988 in cell 37866 at location (0.00833079 0.000246581 0.05)

Time = 0.82

smoothSolver:  Solving for Ux, Initial residual = 5.70438e-05, Final residual = 3.0741e-06, No Iterations 3
smoothSolver:  Solving for Uy, Initial residual = 0.000694202, Final residual = 7.83337e-06, No Iterations 1
GAMG:  Solving for p, Initial residual = 4.42805e-05, Final residual = 3.01724e-06, No Iterations 4
time step continuity errors : sum local = 2.40771e-08, global = -1.02726e-08, cumulative = 3.19168e-06
ExecutionTime = 22.87 s  ClockTime = 25 s

fieldMinMax minMax write:
    min(mag(U)) = 0 in cell 36960 at location (0.000485708 0 0.05)
    max(mag(U)) = 72.7988 in cell 37866 at location (0.00833079 0.000246581 0.05)

Time = 0.83

smoothSolver:  Solving for Ux, Initial residual = 5.45013e-05, Final residual = 2.9407e-06, No Iterations 3
smoothSolver:  Solving for Uy, Initial residual = 0.000681364, Final residual = 7.5987e-06, No Iterations 1
GAMG:  Solving for p, Initial residual = 4.23259e-05, Final residual = 2.81624e-06, No Iterations 4
time step continuity errors : sum local = 2.25127e-08, global = -9.76678e-09, cumulative = 3.18192e-06
ExecutionTime = 23.11 s  ClockTime = 25 s

fieldMinMax minMax write:
    min(mag(U)) = 0 in cell 36960 at location (0.000485708 0 0.05)
    max(mag(U)) = 72.7988 in cell 37866 at location (0.00833079 0.000246581 0.05)

Time = 0.84

smoothSolver:  Solving for Ux, Initial residual = 5.21233e-05, Final residual = 2.81265e-06, No Iterations 3
smoothSolver:  Solving for Uy, Initial residual = 0.000668657, Final residual = 7.36947e-06, No Iterations 1
GAMG:  Solving for p, Initial residual = 4.05192e-05, Final residual = 2.63799e-06, No Iterations 4
time step continuity errors : sum local = 2.11234e-08, global = -9.27291e-09, cumulative = 3.17264e-06
ExecutionTime = 23.35 s  ClockTime = 25 s

fieldMinMax minMax write:
    min(mag(U)) = 0 in cell 36960 at location (0.000485708 0 0.05)
    max(mag(U)) = 72.7988 in cell 37866 at location (0.00833079 0.000246581 0.05)

Time = 0.85

smoothSolver:  Solving for Ux, Initial residual = 4.98393e-05, Final residual = 2.6897e-06, No Iterations 3
smoothSolver:  Solving for Uy, Initial residual = 0.000655794, Final residual = 7.14495e-06, No Iterations 1
GAMG:  Solving for p, Initial residual = 3.88679e-05, Final residual = 2.49444e-06, No Iterations 4
time step continuity errors : sum local = 2.00063e-08, global = -8.82649e-09, cumulative = 3.16382e-06
ExecutionTime = 23.6 s  ClockTime = 25 s

fieldMinMax minMax write:
    min(mag(U)) = 0 in cell 36960 at location (0.000485708 0 0.05)
    max(mag(U)) = 72.7988 in cell 37866 at location (0.00833079 0.000246581 0.05)

Time = 0.86

smoothSolver:  Solving for Ux, Initial residual = 4.7639e-05, Final residual = 2.57161e-06, No Iterations 3
smoothSolver:  Solving for Uy, Initial residual = 0.000642588, Final residual = 6.92464e-06, No Iterations 1
GAMG:  Solving for p, Initial residual = 3.73192e-05, Final residual = 2.39554e-06, No Iterations 4
time step continuity errors : sum local = 1.92429e-08, global = -8.47291e-09, cumulative = 3.15534e-06
ExecutionTime = 23.84 s  ClockTime = 26 s

fieldMinMax minMax write:
    min(mag(U)) = 0 in cell 36960 at location (0.000485708 0 0.05)
    max(mag(U)) = 72.7988 in cell 37866 at location (0.00833079 0.000246581 0.05)

Time = 0.87

smoothSolver:  Solving for Ux, Initial residual = 4.55221e-05, Final residual = 2.45818e-06, No Iterations 3
smoothSolver:  Solving for Uy, Initial residual = 0.000628935, Final residual = 6.70826e-06, No Iterations 1
GAMG:  Solving for p, Initial residual = 3.5889e-05, Final residual = 2.34633e-06, No Iterations 4
time step continuity errors : sum local = 1.88757e-08, global = -8.23645e-09, cumulative = 3.14711e-06
ExecutionTime = 24.1 s  ClockTime = 26 s

fieldMinMax minMax write:
    min(mag(U)) = 0 in cell 36960 at location (0.000485708 0 0.05)
    max(mag(U)) = 72.7988 in cell 37866 at location (0.00833079 0.000246581 0.05)

Time = 0.88

smoothSolver:  Solving for Ux, Initial residual = 4.34879e-05, Final residual = 2.34921e-06, No Iterations 3
smoothSolver:  Solving for Uy, Initial residual = 0.000614914, Final residual = 6.49572e-06, No Iterations 1
GAMG:  Solving for p, Initial residual = 3.45398e-05, Final residual = 2.33725e-06, No Iterations 4
time step continuity errors : sum local = 1.88295e-08, global = -8.09431e-09, cumulative = 3.13901e-06
ExecutionTime = 24.4 s  ClockTime = 26 s

fieldMinMax minMax write:
    min(mag(U)) = 0 in cell 36960 at location (0.000485708 0 0.05)
    max(mag(U)) = 72.7987 in cell 37866 at location (0.00833079 0.000246581 0.05)

Time = 0.89

smoothSolver:  Solving for Ux, Initial residual = 4.15404e-05, Final residual = 2.24459e-06, No Iterations 3
smoothSolver:  Solving for Uy, Initial residual = 0.000600523, Final residual = 6.28717e-06, No Iterations 1
GAMG:  Solving for p, Initial residual = 3.33318e-05, Final residual = 2.34725e-06, No Iterations 4
time step continuity errors : sum local = 1.89361e-08, global = -7.98561e-09, cumulative = 3.13103e-06
ExecutionTime = 24.72 s  ClockTime = 27 s

fieldMinMax minMax write:
    min(mag(U)) = 0 in cell 36960 at location (0.000485708 0 0.05)
    max(mag(U)) = 72.7987 in cell 37866 at location (0.00833079 0.000246581 0.05)

Time = 0.9

smoothSolver:  Solving for Ux, Initial residual = 3.96934e-05, Final residual = 2.1441e-06, No Iterations 3
smoothSolver:  Solving for Uy, Initial residual = 0.00058585, Final residual = 6.08281e-06, No Iterations 1
GAMG:  Solving for p, Initial residual = 3.21802e-05, Final residual = 2.34851e-06, No Iterations 4
time step continuity errors : sum local = 1.89716e-08, global = -7.85822e-09, cumulative = 3.12317e-06
ExecutionTime = 25.06 s  ClockTime = 27 s

fieldMinMax minMax write:
    min(mag(U)) = 0 in cell 36960 at location (0.000485708 0 0.05)
    max(mag(U)) = 72.7987 in cell 37866 at location (0.00833079 0.000246581 0.05)

Time = 0.91

smoothSolver:  Solving for Ux, Initial residual = 3.79444e-05, Final residual = 2.04757e-06, No Iterations 3
smoothSolver:  Solving for Uy, Initial residual = 0.00057096, Final residual = 5.88277e-06, No Iterations 1
GAMG:  Solving for p, Initial residual = 3.10455e-05, Final residual = 2.33091e-06, No Iterations 4
time step continuity errors : sum local = 1.88537e-08, global = -7.70152e-09, cumulative = 3.11547e-06
ExecutionTime = 25.36 s  ClockTime = 27 s

fieldMinMax minMax write:
    min(mag(U)) = 0 in cell 36960 at location (0.000485708 0 0.05)
    max(mag(U)) = 72.7987 in cell 37866 at location (0.00833079 0.000246581 0.05)

Time = 0.92

smoothSolver:  Solving for Ux, Initial residual = 3.62842e-05, Final residual = 1.95481e-06, No Iterations 3
smoothSolver:  Solving for Uy, Initial residual = 0.000555875, Final residual = 5.68711e-06, No Iterations 1
GAMG:  Solving for p, Initial residual = 2.99858e-05, Final residual = 2.30007e-06, No Iterations 4
time step continuity errors : sum local = 1.86275e-08, global = -7.53261e-09, cumulative = 3.10794e-06
ExecutionTime = 25.62 s  ClockTime = 28 s

fieldMinMax minMax write:
    min(mag(U)) = 0 in cell 36960 at location (0.000485708 0 0.05)
    max(mag(U)) = 72.7987 in cell 37866 at location (0.00833079 0.000246581 0.05)

Time = 0.93

smoothSolver:  Solving for Ux, Initial residual = 3.47021e-05, Final residual = 1.86568e-06, No Iterations 3
smoothSolver:  Solving for Uy, Initial residual = 0.000540594, Final residual = 5.49593e-06, No Iterations 1
GAMG:  Solving for p, Initial residual = 2.89689e-05, Final residual = 2.26563e-06, No Iterations 4
time step continuity errors : sum local = 1.83706e-08, global = -7.36976e-09, cumulative = 3.10057e-06
ExecutionTime = 25.89 s  ClockTime = 28 s

fieldMinMax minMax write:
    min(mag(U)) = 0 in cell 36960 at location (0.000485708 0 0.05)
    max(mag(U)) = 72.7987 in cell 37866 at location (0.00833079 0.000246581 0.05)

Time = 0.94

smoothSolver:  Solving for Ux, Initial residual = 3.31913e-05, Final residual = 1.78004e-06, No Iterations 3
smoothSolver:  Solving for Uy, Initial residual = 0.00052514, Final residual = 5.3093e-06, No Iterations 1
GAMG:  Solving for p, Initial residual = 2.80196e-05, Final residual = 2.23281e-06, No Iterations 4
time step continuity errors : sum local = 1.81255e-08, global = -7.22057e-09, cumulative = 3.09335e-06
ExecutionTime = 26.15 s  ClockTime = 28 s

fieldMinMax minMax write:
    min(mag(U)) = 0 in cell 36960 at location (0.000485708 0 0.05)
    max(mag(U)) = 72.7987 in cell 37866 at location (0.00833079 0.000246581 0.05)

Time = 0.95

smoothSolver:  Solving for Ux, Initial residual = 3.17466e-05, Final residual = 1.69776e-06, No Iterations 3
smoothSolver:  Solving for Uy, Initial residual = 0.000509571, Final residual = 5.12737e-06, No Iterations 1
GAMG:  Solving for p, Initial residual = 2.70888e-05, Final residual = 2.20193e-06, No Iterations 4
time step continuity errors : sum local = 1.78949e-08, global = -7.08393e-09, cumulative = 3.08626e-06
ExecutionTime = 26.42 s  ClockTime = 28 s

fieldMinMax minMax write:
    min(mag(U)) = 0 in cell 36960 at location (0.000485708 0 0.05)
    max(mag(U)) = 72.7987 in cell 37866 at location (0.00833079 0.000246581 0.05)

Time = 0.96

smoothSolver:  Solving for Ux, Initial residual = 3.03631e-05, Final residual = 1.61871e-06, No Iterations 3
smoothSolver:  Solving for Uy, Initial residual = 0.000493836, Final residual = 4.95012e-06, No Iterations 1
GAMG:  Solving for p, Initial residual = 2.61854e-05, Final residual = 2.17195e-06, No Iterations 4
time step continuity errors : sum local = 1.76705e-08, global = -6.9563e-09, cumulative = 3.07931e-06
ExecutionTime = 26.68 s  ClockTime = 29 s

fieldMinMax minMax write:
    min(mag(U)) = 0 in cell 36960 at location (0.000485708 0 0.05)
    max(mag(U)) = 72.7987 in cell 37866 at location (0.00833079 0.000246581 0.05)

Time = 0.97

smoothSolver:  Solving for Ux, Initial residual = 2.90354e-05, Final residual = 1.54277e-06, No Iterations 3
smoothSolver:  Solving for Uy, Initial residual = 0.000477937, Final residual = 4.77748e-06, No Iterations 1
GAMG:  Solving for p, Initial residual = 2.52956e-05, Final residual = 2.14215e-06, No Iterations 4
time step continuity errors : sum local = 1.74465e-08, global = -6.83529e-09, cumulative = 3.07247e-06
ExecutionTime = 26.95 s  ClockTime = 29 s

fieldMinMax minMax write:
    min(mag(U)) = 0 in cell 36960 at location (0.000485708 0 0.05)
    max(mag(U)) = 72.7987 in cell 37866 at location (0.00833079 0.000246581 0.05)

Time = 0.98

smoothSolver:  Solving for Ux, Initial residual = 2.77594e-05, Final residual = 1.46982e-06, No Iterations 3
smoothSolver:  Solving for Uy, Initial residual = 0.000461939, Final residual = 4.60939e-06, No Iterations 1
GAMG:  Solving for p, Initial residual = 2.44142e-05, Final residual = 2.1127e-06, No Iterations 4
time step continuity errors : sum local = 1.72242e-08, global = -6.71979e-09, cumulative = 3.06575e-06
ExecutionTime = 27.21 s  ClockTime = 29 s

fieldMinMax minMax write:
    min(mag(U)) = 0 in cell 36960 at location (0.000485708 0 0.05)
    max(mag(U)) = 72.7987 in cell 37866 at location (0.00833079 0.000246581 0.05)

Time = 0.99

smoothSolver:  Solving for Ux, Initial residual = 2.65306e-05, Final residual = 1.39975e-06, No Iterations 3
smoothSolver:  Solving for Uy, Initial residual = 0.000445922, Final residual = 4.44572e-06, No Iterations 1
GAMG:  Solving for p, Initial residual = 2.35472e-05, Final residual = 2.08401e-06, No Iterations 4
time step continuity errors : sum local = 1.70073e-08, global = -6.60896e-09, cumulative = 3.05914e-06
ExecutionTime = 27.48 s  ClockTime = 29 s

fieldMinMax minMax write:
    min(mag(U)) = 0 in cell 36960 at location (0.000485708 0 0.05)
    max(mag(U)) = 72.7987 in cell 37866 at location (0.00833079 0.000246581 0.05)

Time = 1

smoothSolver:  Solving for Ux, Initial residual = 2.53454e-05, Final residual = 1.33245e-06, No Iterations 3
smoothSolver:  Solving for Uy, Initial residual = 0.000429963, Final residual = 4.28639e-06, No Iterations 1
GAMG:  Solving for p, Initial residual = 2.27116e-05, Final residual = 2.05634e-06, No Iterations 4
time step continuity errors : sum local = 1.67978e-08, global = -6.50166e-09, cumulative = 3.05264e-06
ExecutionTime = 28.09 s  ClockTime = 30 s

fieldMinMax minMax write:
    min(mag(U)) = 0 in cell 36960 at location (0.000485708 0 0.05)
    max(mag(U)) = 72.7987 in cell 37866 at location (0.00833079 0.000246581 0.05)

yPlus yPlus write:
    writing field yPlus
    patch topWall y+ : min = 0.0321621, max = 0.312412, average = 0.273156
    patch bottomWall y+ : min = 2.56487, max = 15.24, average = 4.42204
writeCellCentres writeCellCentres write:
    writing cell-volumes field C to 1
    Writing the x component field of the cell-centres Cx to 1
    Writing the y component field of the cell-centres Cy to 1
    Writing the z component field of the cell-centres Cz to 1
wallShearStress wallShearStress write:
    writing field wallShearStress
    min/max(topWall) = (-1.26317e-09 -9.33816e-07 0), (6.69099e-09 -1.03311e-08 0)
    min/max(bottomWall) = (-18.7783 -0.208156 0), (-0.531836 0.0170373 0)
Time = 1.01

smoothSolver:  Solving for Ux, Initial residual = 2.42019e-05, Final residual = 1.2678e-06, No Iterations 3
smoothSolver:  Solving for Uy, Initial residual = 0.000414125, Final residual = 4.13129e-06, No Iterations 1
GAMG:  Solving for p, Initial residual = 2.19148e-05, Final residual = 2.02975e-06, No Iterations 4
time step continuity errors : sum local = 1.65963e-08, global = -6.39639e-09, cumulative = 3.04624e-06
ExecutionTime = 28.75 s  ClockTime = 31 s

fieldMinMax minMax write:
    min(mag(U)) = 0 in cell 36960 at location (0.000485708 0 0.05)
    max(mag(U)) = 72.7988 in cell 37866 at location (0.00833079 0.000246581 0.05)

Time = 1.02

smoothSolver:  Solving for Ux, Initial residual = 2.30948e-05, Final residual = 1.20572e-06, No Iterations 3
smoothSolver:  Solving for Uy, Initial residual = 0.00039846, Final residual = 3.98029e-06, No Iterations 1
GAMG:  Solving for p, Initial residual = 2.11495e-05, Final residual = 2.00409e-06, No Iterations 4
time step continuity errors : sum local = 1.64015e-08, global = -6.29148e-09, cumulative = 3.03995e-06
ExecutionTime = 29.1 s  ClockTime = 32 s

fieldMinMax minMax write:
    min(mag(U)) = 0 in cell 36960 at location (0.000485708 0 0.05)
    max(mag(U)) = 72.7988 in cell 37866 at location (0.00833079 0.000246581 0.05)

Time = 1.03

smoothSolver:  Solving for Ux, Initial residual = 2.2018e-05, Final residual = 1.14612e-06, No Iterations 3
smoothSolver:  Solving for Uy, Initial residual = 0.000383012, Final residual = 3.83329e-06, No Iterations 1
GAMG:  Solving for p, Initial residual = 2.04036e-05, Final residual = 1.97936e-06, No Iterations 4
time step continuity errors : sum local = 1.62137e-08, global = -6.18533e-09, cumulative = 3.03377e-06
ExecutionTime = 29.41 s  ClockTime = 32 s

fieldMinMax minMax write:
    min(mag(U)) = 0 in cell 36960 at location (0.000485708 0 0.05)
    max(mag(U)) = 72.7988 in cell 37866 at location (0.00833079 0.000246581 0.05)

Time = 1.04

smoothSolver:  Solving for Ux, Initial residual = 2.09671e-05, Final residual = 1.08891e-06, No Iterations 3
smoothSolver:  Solving for Uy, Initial residual = 0.000367813, Final residual = 3.69017e-06, No Iterations 1
GAMG:  Solving for p, Initial residual = 1.9679e-05, Final residual = 1.95504e-06, No Iterations 4
time step continuity errors : sum local = 1.60285e-08, global = -6.07655e-09, cumulative = 3.02769e-06
ExecutionTime = 29.71 s  ClockTime = 32 s

fieldMinMax minMax write:
    min(mag(U)) = 0 in cell 36960 at location (0.000485708 0 0.05)
    max(mag(U)) = 72.7988 in cell 37866 at location (0.00833079 0.000246581 0.05)

Time = 1.05

smoothSolver:  Solving for Ux, Initial residual = 1.99395e-05, Final residual = 1.03404e-06, No Iterations 3
smoothSolver:  Solving for Uy, Initial residual = 0.000352889, Final residual = 3.55081e-06, No Iterations 1
GAMG:  Solving for p, Initial residual = 1.89789e-05, Final residual = 1.0955e-06, No Iterations 6
time step continuity errors : sum local = 8.98924e-09, global = -2.14491e-09, cumulative = 3.02554e-06
ExecutionTime = 30.13 s  ClockTime = 33 s

fieldMinMax minMax write:
    min(mag(U)) = 0 in cell 36960 at location (0.000485708 0 0.05)
    max(mag(U)) = 72.7988 in cell 37866 at location (0.00833079 0.000246581 0.05)

Time = 1.06

smoothSolver:  Solving for Ux, Initial residual = 1.90038e-05, Final residual = 9.81353e-07, No Iterations 3
smoothSolver:  Solving for Uy, Initial residual = 0.000339174, Final residual = 3.41994e-06, No Iterations 1
GAMG:  Solving for p, Initial residual = 1.78926e-05, Final residual = 1.52679e-06, No Iterations 3
time step continuity errors : sum local = 1.25416e-08, global = 2.03215e-09, cumulative = 3.02758e-06
ExecutionTime = 30.42 s  ClockTime = 33 s

fieldMinMax minMax write:
    min(mag(U)) = 0 in cell 36960 at location (0.000485708 0 0.05)
    max(mag(U)) = 72.7988 in cell 37866 at location (0.00833079 0.000246581 0.05)

Time = 1.07

smoothSolver:  Solving for Ux, Initial residual = 1.79499e-05, Final residual = 9.3098e-07, No Iterations 3
smoothSolver:  Solving for Uy, Initial residual = 0.000324204, Final residual = 3.28283e-06, No Iterations 1
GAMG:  Solving for p, Initial residual = 1.77254e-05, Final residual = 1.68937e-06, No Iterations 3
time step continuity errors : sum local = 1.38861e-08, global = 3.32949e-09, cumulative = 3.03091e-06
ExecutionTime = 30.67 s  ClockTime = 33 s

fieldMinMax minMax write:
    min(mag(U)) = 0 in cell 36960 at location (0.000485708 0 0.05)
    max(mag(U)) = 72.7988 in cell 37866 at location (0.00833079 0.000246581 0.05)

Time = 1.08

smoothSolver:  Solving for Ux, Initial residual = 1.69866e-05, Final residual = 8.82712e-07, No Iterations 3
smoothSolver:  Solving for Uy, Initial residual = 0.000309463, Final residual = 3.15228e-06, No Iterations 1
GAMG:  Solving for p, Initial residual = 1.70148e-05, Final residual = 1.66198e-06, No Iterations 3
time step continuity errors : sum local = 1.36707e-08, global = 2.60836e-09, cumulative = 3.03351e-06
ExecutionTime = 30.91 s  ClockTime = 33 s

fieldMinMax minMax write:
    min(mag(U)) = 0 in cell 36960 at location (0.000485708 0 0.05)
    max(mag(U)) = 72.7988 in cell 37866 at location (0.00833079 0.000246581 0.05)

Time = 1.09

smoothSolver:  Solving for Ux, Initial residual = 1.60677e-05, Final residual = 8.36453e-07, No Iterations 3
smoothSolver:  Solving for Uy, Initial residual = 0.000296213, Final residual = 3.02816e-06, No Iterations 1
GAMG:  Solving for p, Initial residual = 1.62794e-05, Final residual = 1.51542e-06, No Iterations 3
time step continuity errors : sum local = 1.24753e-08, global = 2.10125e-09, cumulative = 3.03562e-06
ExecutionTime = 31.15 s  ClockTime = 34 s

fieldMinMax minMax write:
    min(mag(U)) = 0 in cell 36960 at location (0.000485708 0 0.05)
    max(mag(U)) = 72.7988 in cell 37866 at location (0.00833079 0.000246581 0.05)

Time = 1.1

smoothSolver:  Solving for Ux, Initial residual = 1.51634e-05, Final residual = 7.9218e-07, No Iterations 3
smoothSolver:  Solving for Uy, Initial residual = 0.000283363, Final residual = 2.90847e-06, No Iterations 1
GAMG:  Solving for p, Initial residual = 1.55926e-05, Final residual = 1.2954e-06, No Iterations 3
time step continuity errors : sum local = 1.06725e-08, global = 1.45825e-09, cumulative = 3.03707e-06
ExecutionTime = 31.38 s  ClockTime = 34 s

fieldMinMax minMax write:
    min(mag(U)) = 0 in cell 36960 at location (0.000485708 0 0.05)
    max(mag(U)) = 72.7988 in cell 37866 at location (0.00833079 0.000246581 0.05)

Time = 1.11

smoothSolver:  Solving for Ux, Initial residual = 1.42795e-05, Final residual = 7.49844e-07, No Iterations 3
smoothSolver:  Solving for Uy, Initial residual = 0.00027044, Final residual = 2.79029e-06, No Iterations 1
GAMG:  Solving for p, Initial residual = 1.50931e-05, Final residual = 1.28912e-06, No Iterations 3
time step continuity errors : sum local = 1.06286e-08, global = 1.68304e-09, cumulative = 3.03876e-06
ExecutionTime = 31.62 s  ClockTime = 34 s

fieldMinMax minMax write:
    min(mag(U)) = 0 in cell 36960 at location (0.000485708 0 0.05)
    max(mag(U)) = 72.7988 in cell 37866 at location (0.00833079 0.000246581 0.05)

Time = 1.12

smoothSolver:  Solving for Ux, Initial residual = 1.34363e-05, Final residual = 7.09384e-07, No Iterations 3
smoothSolver:  Solving for Uy, Initial residual = 0.000257511, Final residual = 2.67366e-06, No Iterations 1
GAMG:  Solving for p, Initial residual = 1.45186e-05, Final residual = 1.35433e-06, No Iterations 3
time step continuity errors : sum local = 1.11741e-08, global = 1.99445e-09, cumulative = 3.04075e-06
ExecutionTime = 31.86 s  ClockTime = 34 s

fieldMinMax minMax write:
    min(mag(U)) = 0 in cell 36960 at location (0.000485708 0 0.05)
    max(mag(U)) = 72.7988 in cell 37866 at location (0.00833079 0.000246581 0.05)

Time = 1.13

smoothSolver:  Solving for Ux, Initial residual = 1.26317e-05, Final residual = 6.70726e-07, No Iterations 3
smoothSolver:  Solving for Uy, Initial residual = 0.000245032, Final residual = 2.56072e-06, No Iterations 1
GAMG:  Solving for p, Initial residual = 1.39662e-05, Final residual = 1.32876e-06, No Iterations 3
time step continuity errors : sum local = 1.09708e-08, global = 1.46501e-09, cumulative = 3.04222e-06
ExecutionTime = 32.1 s  ClockTime = 35 s

fieldMinMax minMax write:
    min(mag(U)) = 0 in cell 36960 at location (0.000485708 0 0.05)
    max(mag(U)) = 72.7988 in cell 37866 at location (0.00833079 0.000246581 0.05)

Time = 1.14

smoothSolver:  Solving for Ux, Initial residual = 1.18531e-05, Final residual = 6.3381e-07, No Iterations 3
smoothSolver:  Solving for Uy, Initial residual = 0.000233311, Final residual = 2.4522e-06, No Iterations 1
GAMG:  Solving for p, Initial residual = 1.3458e-05, Final residual = 1.3308e-06, No Iterations 3
time step continuity errors : sum local = 1.09951e-08, global = 1.33792e-09, cumulative = 3.04355e-06
ExecutionTime = 32.34 s  ClockTime = 35 s

fieldMinMax minMax write:
    min(mag(U)) = 0 in cell 36960 at location (0.000485708 0 0.05)
    max(mag(U)) = 72.7988 in cell 37866 at location (0.00833079 0.000246581 0.05)

Time = 1.15

smoothSolver:  Solving for Ux, Initial residual = 1.11143e-05, Final residual = 5.98585e-07, No Iterations 3
smoothSolver:  Solving for Uy, Initial residual = 0.000221787, Final residual = 2.34611e-06, No Iterations 1
GAMG:  Solving for p, Initial residual = 1.30611e-05, Final residual = 7.7077e-07, No Iterations 4
time step continuity errors : sum local = 6.37233e-09, global = -3.46578e-09, cumulative = 3.04009e-06
ExecutionTime = 32.6 s  ClockTime = 35 s

fieldMinMax minMax write:
    min(mag(U)) = 0 in cell 36960 at location (0.000485708 0 0.05)
    max(mag(U)) = 72.7988 in cell 37866 at location (0.00833079 0.000246581 0.05)

Time = 1.16

smoothSolver:  Solving for Ux, Initial residual = 1.04168e-05, Final residual = 5.64987e-07, No Iterations 3
smoothSolver:  Solving for Uy, Initial residual = 0.000210674, Final residual = 2.24459e-06, No Iterations 1
GAMG:  Solving for p, Initial residual = 1.25365e-05, Final residual = 9.97271e-07, No Iterations 4
time step continuity errors : sum local = 8.25029e-09, global = -4.38858e-09, cumulative = 3.0357e-06
ExecutionTime = 32.86 s  ClockTime = 35 s

fieldMinMax minMax write:
    min(mag(U)) = 0 in cell 36960 at location (0.000485708 0 0.05)
    max(mag(U)) = 72.7988 in cell 37866 at location (0.00833079 0.000246581 0.05)

Time = 1.17

smoothSolver:  Solving for Ux, Initial residual = 9.74218e-06, Final residual = 5.32994e-07, No Iterations 3
smoothSolver:  Solving for Uy, Initial residual = 0.000199429, Final residual = 2.14118e-06, No Iterations 1
GAMG:  Solving for p, Initial residual = 1.23206e-05, Final residual = 8.50811e-07, No Iterations 6
time step continuity errors : sum local = 7.04251e-09, global = -1.47623e-09, cumulative = 3.03422e-06
ExecutionTime = 33.19 s  ClockTime = 36 s

fieldMinMax minMax write:
    min(mag(U)) = 0 in cell 36960 at location (0.000485708 0 0.05)
    max(mag(U)) = 72.7988 in cell 37866 at location (0.00833079 0.000246581 0.05)

Time = 1.18

smoothSolver:  Solving for Ux, Initial residual = 9.18491e-06, Final residual = 5.02442e-07, No Iterations 3
smoothSolver:  Solving for Uy, Initial residual = 0.000190098, Final residual = 2.04969e-06, No Iterations 1
GAMG:  Solving for p, Initial residual = 1.1757e-05, Final residual = 1.09927e-06, No Iterations 3
time step continuity errors : sum local = 9.10643e-09, global = 1.36889e-09, cumulative = 3.03559e-06
ExecutionTime = 33.43 s  ClockTime = 36 s

fieldMinMax minMax write:
    min(mag(U)) = 0 in cell 36960 at location (0.000485708 0 0.05)
    max(mag(U)) = 72.7988 in cell 37866 at location (0.00833079 0.000246581 0.05)

Time = 1.19

smoothSolver:  Solving for Ux, Initial residual = 8.58092e-06, Final residual = 4.73417e-07, No Iterations 3
smoothSolver:  Solving for Uy, Initial residual = 0.000179167, Final residual = 1.95096e-06, No Iterations 1
[...]
ExecutionTime = 1215.7 s  ClockTime = 1329 s

fieldMinMax minMax write:
    min(mag(U)) = 0 in cell 36960 at location (0.000485708 0 0.05)
    max(mag(U)) = 72.7988 in cell 37866 at location (0.00833079 0.000246581 0.05)

Time = 59.72

smoothSolver:  Solving for Ux, Initial residual = 6.45315e-11, Final residual = 6.45315e-11, No Iterations 0
smoothSolver:  Solving for Uy, Initial residual = 9.47353e-11, Final residual = 9.47353e-11, No Iterations 0
GAMG:  Solving for p, Initial residual = 5.1723e-10, Final residual = 5.66343e-13, No Iterations 1
time step continuity errors : sum local = 1.62744e-14, global = 1.11587e-17, cumulative = 2.9801e-06
ExecutionTime = 1215.87 s  ClockTime = 1329 s

fieldMinMax minMax write:
    min(mag(U)) = 0 in cell 36960 at location (0.000485708 0 0.05)
    max(mag(U)) = 72.7988 in cell 37866 at location (0.00833079 0.000246581 0.05)

Time = 59.73

smoothSolver:  Solving for Ux, Initial residual = 8.83251e-11, Final residual = 8.83251e-11, No Iterations 0
smoothSolver:  Solving for Uy, Initial residual = 1.45266e-10, Final residual = 8.17571e-13, No Iterations 1
GAMG:  Solving for p, Initial residual = 2.4916e-09, Final residual = 1.47197e-12, No Iterations 1
time step continuity errors : sum local = 2.37912e-14, global = 1.97174e-16, cumulative = 2.9801e-06
ExecutionTime = 1216.04 s  ClockTime = 1329 s

fieldMinMax minMax write:
    min(mag(U)) = 0 in cell 36960 at location (0.000485708 0 0.05)
    max(mag(U)) = 72.7988 in cell 37866 at location (0.00833079 0.000246581 0.05)

Time = 59.74

smoothSolver:  Solving for Ux, Initial residual = 1.23835e-10, Final residual = 9.09013e-13, No Iterations 1
smoothSolver:  Solving for Uy, Initial residual = 1.51768e-10, Final residual = 8.69373e-13, No Iterations 1
GAMG:  Solving for p, Initial residual = 5.37169e-10, Final residual = 7.40229e-13, No Iterations 1
time step continuity errors : sum local = 1.75341e-14, global = -1.27439e-16, cumulative = 2.9801e-06
ExecutionTime = 1216.22 s  ClockTime = 1329 s

fieldMinMax minMax write:
    min(mag(U)) = 0 in cell 36960 at location (0.000485708 0 0.05)
    max(mag(U)) = 72.7988 in cell 37866 at location (0.00833079 0.000246581 0.05)

Time = 59.75

smoothSolver:  Solving for Ux, Initial residual = 6.65361e-11, Final residual = 6.65361e-11, No Iterations 0
smoothSolver:  Solving for Uy, Initial residual = 9.53738e-11, Final residual = 9.53738e-11, No Iterations 0
GAMG:  Solving for p, Initial residual = 5.59931e-10, Final residual = 5.76465e-13, No Iterations 1
time step continuity errors : sum local = 1.63387e-14, global = -1.939e-16, cumulative = 2.9801e-06
ExecutionTime = 1216.41 s  ClockTime = 1329 s

fieldMinMax minMax write:
    min(mag(U)) = 0 in cell 36960 at location (0.000485708 0 0.05)
    max(mag(U)) = 72.7988 in cell 37866 at location (0.00833079 0.000246581 0.05)

Time = 59.76

smoothSolver:  Solving for Ux, Initial residual = 9.68537e-11, Final residual = 9.68537e-11, No Iterations 0
smoothSolver:  Solving for Uy, Initial residual = 1.53449e-10, Final residual = 8.09649e-13, No Iterations 1
GAMG:  Solving for p, Initial residual = 2.53516e-09, Final residual = 1.53653e-12, No Iterations 1
time step continuity errors : sum local = 2.42609e-14, global = -3.05057e-16, cumulative = 2.9801e-06
ExecutionTime = 1216.61 s  ClockTime = 1330 s

fieldMinMax minMax write:
    min(mag(U)) = 0 in cell 36960 at location (0.000485708 0 0.05)
    max(mag(U)) = 72.7988 in cell 37866 at location (0.00833079 0.000246581 0.05)

Time = 59.77

smoothSolver:  Solving for Ux, Initial residual = 1.34912e-10, Final residual = 9.41836e-13, No Iterations 1
smoothSolver:  Solving for Uy, Initial residual = 1.63832e-10, Final residual = 8.98823e-13, No Iterations 1
GAMG:  Solving for p, Initial residual = 6.01278e-10, Final residual = 8.15801e-13, No Iterations 1
time step continuity errors : sum local = 1.82801e-14, global = 1.90697e-17, cumulative = 2.9801e-06
ExecutionTime = 1216.81 s  ClockTime = 1330 s

fieldMinMax minMax write:
    min(mag(U)) = 0 in cell 36960 at location (0.000485708 0 0.05)
    max(mag(U)) = 72.7988 in cell 37866 at location (0.00833079 0.000246581 0.05)

Time = 59.78

smoothSolver:  Solving for Ux, Initial residual = 6.99518e-11, Final residual = 6.99518e-11, No Iterations 0
smoothSolver:  Solving for Uy, Initial residual = 1.02634e-10, Final residual = 5.76799e-13, No Iterations 1
GAMG:  Solving for p, Initial residual = 1.98015e-09, Final residual = 1.29989e-12, No Iterations 1
time step continuity errors : sum local = 2.23562e-14, global = 1.34688e-16, cumulative = 2.9801e-06
ExecutionTime = 1216.99 s  ClockTime = 1330 s

fieldMinMax minMax write:
    min(mag(U)) = 0 in cell 36960 at location (0.000485708 0 0.05)
    max(mag(U)) = 72.7988 in cell 37866 at location (0.00833079 0.000246581 0.05)

Time = 59.79

smoothSolver:  Solving for Ux, Initial residual = 9.64062e-11, Final residual = 9.64062e-11, No Iterations 0
smoothSolver:  Solving for Uy, Initial residual = 1.14266e-10, Final residual = 6.64639e-13, No Iterations 1
GAMG:  Solving for p, Initial residual = 3.03406e-09, Final residual = 1.84436e-12, No Iterations 1
time step continuity errors : sum local = 2.67794e-14, global = 3.35779e-17, cumulative = 2.9801e-06
ExecutionTime = 1217.17 s  ClockTime = 1330 s

fieldMinMax minMax write:
    min(mag(U)) = 0 in cell 36960 at location (0.000485708 0 0.05)
    max(mag(U)) = 72.7988 in cell 37866 at location (0.00833079 0.000246581 0.05)

Time = 59.8

smoothSolver:  Solving for Ux, Initial residual = 1.4226e-10, Final residual = 9.83617e-13, No Iterations 1
smoothSolver:  Solving for Uy, Initial residual = 1.56743e-10, Final residual = 8.76794e-13, No Iterations 1
GAMG:  Solving for p, Initial residual = 8.15524e-10, Final residual = 9.51794e-13, No Iterations 1
time step continuity errors : sum local = 1.93635e-14, global = -1.99543e-16, cumulative = 2.9801e-06
ExecutionTime = 1217.34 s  ClockTime = 1330 s

fieldMinMax minMax write:
    min(mag(U)) = 0 in cell 36960 at location (0.000485708 0 0.05)
    max(mag(U)) = 72.7988 in cell 37866 at location (0.00833079 0.000246581 0.05)

Time = 59.81

smoothSolver:  Solving for Ux, Initial residual = 7.57137e-11, Final residual = 7.57137e-11, No Iterations 0
smoothSolver:  Solving for Uy, Initial residual = 1.05829e-10, Final residual = 5.77412e-13, No Iterations 1
GAMG:  Solving for p, Initial residual = 2.16399e-09, Final residual = 1.44063e-12, No Iterations 1
time step continuity errors : sum local = 2.34368e-14, global = -2.50036e-16, cumulative = 2.9801e-06
ExecutionTime = 1217.52 s  ClockTime = 1331 s

fieldMinMax minMax write:
    min(mag(U)) = 0 in cell 36960 at location (0.000485708 0 0.05)
    max(mag(U)) = 72.7988 in cell 37866 at location (0.00833079 0.000246581 0.05)

Time = 59.82

smoothSolver:  Solving for Ux, Initial residual = 1.06576e-10, Final residual = 7.43409e-13, No Iterations 1
smoothSolver:  Solving for Uy, Initial residual = 1.26712e-10, Final residual = 6.93595e-13, No Iterations 1
GAMG:  Solving for p, Initial residual = 5.5828e-10, Final residual = 7.14926e-13, No Iterations 1
time step continuity errors : sum local = 1.73252e-14, global = 1.71321e-17, cumulative = 2.9801e-06
ExecutionTime = 1217.7 s  ClockTime = 1331 s

fieldMinMax minMax write:
    min(mag(U)) = 0 in cell 36960 at location (0.000485708 0 0.05)
    max(mag(U)) = 72.7988 in cell 37866 at location (0.00833079 0.000246581 0.05)

Time = 59.83

smoothSolver:  Solving for Ux, Initial residual = 5.53548e-11, Final residual = 5.53548e-11, No Iterations 0
smoothSolver:  Solving for Uy, Initial residual = 8.2228e-11, Final residual = 8.2228e-11, No Iterations 0
GAMG:  Solving for p, Initial residual = 3.86938e-10, Final residual = 5.10265e-13, No Iterations 1
time step continuity errors : sum local = 1.58805e-14, global = 2.90527e-17, cumulative = 2.9801e-06
ExecutionTime = 1217.88 s  ClockTime = 1331 s

fieldMinMax minMax write:
    min(mag(U)) = 0 in cell 36960 at location (0.000485708 0 0.05)
    max(mag(U)) = 72.7988 in cell 37866 at location (0.00833079 0.000246581 0.05)

Time = 59.84

smoothSolver:  Solving for Ux, Initial residual = 7.58946e-11, Final residual = 7.58946e-11, No Iterations 0
smoothSolver:  Solving for Uy, Initial residual = 1.22102e-10, Final residual = 7.13059e-13, No Iterations 1
GAMG:  Solving for p, Initial residual = 2.07954e-09, Final residual = 1.22577e-12, No Iterations 1
time step continuity errors : sum local = 2.18366e-14, global = 1.92881e-17, cumulative = 2.9801e-06
ExecutionTime = 1218.06 s  ClockTime = 1331 s

fieldMinMax minMax write:
    min(mag(U)) = 0 in cell 36960 at location (0.000485708 0 0.05)
    max(mag(U)) = 72.7988 in cell 37866 at location (0.00833079 0.000246581 0.05)

Time = 59.85

smoothSolver:  Solving for Ux, Initial residual = 1.10589e-10, Final residual = 7.92297e-13, No Iterations 1
smoothSolver:  Solving for Uy, Initial residual = 1.29536e-10, Final residual = 7.36091e-13, No Iterations 1
GAMG:  Solving for p, Initial residual = 5.07219e-10, Final residual = 7.08229e-13, No Iterations 1
time step continuity errors : sum local = 1.73913e-14, global = -7.02769e-17, cumulative = 2.9801e-06
ExecutionTime = 1218.23 s  ClockTime = 1331 s

fieldMinMax minMax write:
    min(mag(U)) = 0 in cell 36960 at location (0.000485708 0 0.05)
    max(mag(U)) = 72.7988 in cell 37866 at location (0.00833079 0.000246581 0.05)

Time = 59.86

smoothSolver:  Solving for Ux, Initial residual = 5.91408e-11, Final residual = 5.91408e-11, No Iterations 0
smoothSolver:  Solving for Uy, Initial residual = 8.26608e-11, Final residual = 8.26608e-11, No Iterations 0
GAMG:  Solving for p, Initial residual = 5.5474e-10, Final residual = 5.52713e-13, No Iterations 1
time step continuity errors : sum local = 1.63092e-14, global = -1.53779e-17, cumulative = 2.9801e-06
ExecutionTime = 1218.4 s  ClockTime = 1331 s

fieldMinMax minMax write:
    min(mag(U)) = 0 in cell 36960 at location (0.000485708 0 0.05)
    max(mag(U)) = 72.7988 in cell 37866 at location (0.00833079 0.000246581 0.05)

Time = 59.87

smoothSolver:  Solving for Ux, Initial residual = 8.42977e-11, Final residual = 8.42977e-11, No Iterations 0
smoothSolver:  Solving for Uy, Initial residual = 1.3384e-10, Final residual = 7.16725e-13, No Iterations 1
GAMG:  Solving for p, Initial residual = 2.2642e-09, Final residual = 1.35426e-12, No Iterations 1
time step continuity errors : sum local = 2.28323e-14, global = 9.99631e-17, cumulative = 2.9801e-06
ExecutionTime = 1218.56 s  ClockTime = 1332 s

fieldMinMax minMax write:
    min(mag(U)) = 0 in cell 36960 at location (0.000485708 0 0.05)
    max(mag(U)) = 72.7988 in cell 37866 at location (0.00833079 0.000246581 0.05)

Time = 59.88

smoothSolver:  Solving for Ux, Initial residual = 1.15503e-10, Final residual = 8.48702e-13, No Iterations 1
smoothSolver:  Solving for Uy, Initial residual = 1.40882e-10, Final residual = 8.08843e-13, No Iterations 1
GAMG:  Solving for p, Initial residual = 4.73318e-10, Final residual = 7.20618e-13, No Iterations 1
time step continuity errors : sum local = 1.74713e-14, global = 2.62106e-18, cumulative = 2.9801e-06
ExecutionTime = 1218.73 s  ClockTime = 1332 s

fieldMinMax minMax write:
    min(mag(U)) = 0 in cell 36960 at location (0.000485708 0 0.05)
    max(mag(U)) = 72.7988 in cell 37866 at location (0.00833079 0.000246581 0.05)

Time = 59.89

smoothSolver:  Solving for Ux, Initial residual = 5.9953e-11, Final residual = 5.9953e-11, No Iterations 0
smoothSolver:  Solving for Uy, Initial residual = 8.5799e-11, Final residual = 8.5799e-11, No Iterations 0
GAMG:  Solving for p, Initial residual = 4.40652e-10, Final residual = 5.22895e-13, No Iterations 1
time step continuity errors : sum local = 1.59573e-14, global = -6.38363e-17, cumulative = 2.9801e-06
ExecutionTime = 1218.89 s  ClockTime = 1332 s

fieldMinMax minMax write:
    min(mag(U)) = 0 in cell 36960 at location (0.000485708 0 0.05)
    max(mag(U)) = 72.7988 in cell 37866 at location (0.00833079 0.000246581 0.05)

Time = 59.9

smoothSolver:  Solving for Ux, Initial residual = 8.58229e-11, Final residual = 8.58229e-11, No Iterations 0
smoothSolver:  Solving for Uy, Initial residual = 1.3322e-10, Final residual = 7.67145e-13, No Iterations 1
GAMG:  Solving for p, Initial residual = 2.38435e-09, Final residual = 1.44103e-12, No Iterations 1
time step continuity errors : sum local = 2.3547e-14, global = -1.98133e-16, cumulative = 2.9801e-06
ExecutionTime = 1219.06 s  ClockTime = 1332 s

fieldMinMax minMax write:
    min(mag(U)) = 0 in cell 36960 at location (0.000485708 0 0.05)
    max(mag(U)) = 72.7988 in cell 37866 at location (0.00833079 0.000246581 0.05)

Time = 59.91

smoothSolver:  Solving for Ux, Initial residual = 1.25952e-10, Final residual = 8.5672e-13, No Iterations 1
smoothSolver:  Solving for Uy, Initial residual = 1.47151e-10, Final residual = 8.12646e-13, No Iterations 1
GAMG:  Solving for p, Initial residual = 6.12626e-10, Final residual = 7.74966e-13, No Iterations 1
time step continuity errors : sum local = 1.78936e-14, global = 1.07168e-16, cumulative = 2.9801e-06
ExecutionTime = 1219.23 s  ClockTime = 1332 s

fieldMinMax minMax write:
    min(mag(U)) = 0 in cell 36960 at location (0.000485708 0 0.05)
    max(mag(U)) = 72.7988 in cell 37866 at location (0.00833079 0.000246581 0.05)

Time = 59.92

smoothSolver:  Solving for Ux, Initial residual = 6.63966e-11, Final residual = 6.63966e-11, No Iterations 0
smoothSolver:  Solving for Uy, Initial residual = 9.4889e-11, Final residual = 9.4889e-11, No Iterations 0
GAMG:  Solving for p, Initial residual = 5.16749e-10, Final residual = 5.75824e-13, No Iterations 1
time step continuity errors : sum local = 1.63537e-14, global = 1.31739e-16, cumulative = 2.9801e-06
ExecutionTime = 1219.39 s  ClockTime = 1332 s

fieldMinMax minMax write:
    min(mag(U)) = 0 in cell 36960 at location (0.000485708 0 0.05)
    max(mag(U)) = 72.7988 in cell 37866 at location (0.00833079 0.000246581 0.05)

Time = 59.93

smoothSolver:  Solving for Ux, Initial residual = 9.16992e-11, Final residual = 9.16992e-11, No Iterations 0
smoothSolver:  Solving for Uy, Initial residual = 1.46004e-10, Final residual = 8.28633e-13, No Iterations 1
GAMG:  Solving for p, Initial residual = 2.50663e-09, Final residual = 1.46996e-12, No Iterations 1
time step continuity errors : sum local = 2.37302e-14, global = 2.98747e-16, cumulative = 2.9801e-06
ExecutionTime = 1219.58 s  ClockTime = 1333 s

fieldMinMax minMax write:
    min(mag(U)) = 0 in cell 36960 at location (0.000485708 0 0.05)
    max(mag(U)) = 72.7988 in cell 37866 at location (0.00833079 0.000246581 0.05)

Time = 59.94

smoothSolver:  Solving for Ux, Initial residual = 1.25701e-10, Final residual = 9.49831e-13, No Iterations 1
smoothSolver:  Solving for Uy, Initial residual = 1.50408e-10, Final residual = 8.94095e-13, No Iterations 1
GAMG:  Solving for p, Initial residual = 5.36877e-10, Final residual = 7.33952e-13, No Iterations 1
time step continuity errors : sum local = 1.75751e-14, global = -5.00366e-18, cumulative = 2.9801e-06
ExecutionTime = 1219.76 s  ClockTime = 1333 s

fieldMinMax minMax write:
    min(mag(U)) = 0 in cell 36960 at location (0.000485708 0 0.05)
    max(mag(U)) = 72.7988 in cell 37866 at location (0.00833079 0.000246581 0.05)

Time = 59.95

smoothSolver:  Solving for Ux, Initial residual = 6.64921e-11, Final residual = 6.64921e-11, No Iterations 0
smoothSolver:  Solving for Uy, Initial residual = 9.32551e-11, Final residual = 9.32551e-11, No Iterations 0
GAMG:  Solving for p, Initial residual = 5.75164e-10, Final residual = 5.8483e-13, No Iterations 1
time step continuity errors : sum local = 1.64496e-14, global = -7.67934e-17, cumulative = 2.9801e-06
ExecutionTime = 1219.92 s  ClockTime = 1333 s

fieldMinMax minMax write:
    min(mag(U)) = 0 in cell 36960 at location (0.000485708 0 0.05)
    max(mag(U)) = 72.7988 in cell 37866 at location (0.00833079 0.000246581 0.05)

Time = 59.96

smoothSolver:  Solving for Ux, Initial residual = 9.84999e-11, Final residual = 9.84999e-11, No Iterations 0
smoothSolver:  Solving for Uy, Initial residual = 1.51851e-10, Final residual = 8.42108e-13, No Iterations 1
GAMG:  Solving for p, Initial residual = 2.6221e-09, Final residual = 1.57124e-12, No Iterations 1
time step continuity errors : sum local = 2.46497e-14, global = -1.54849e-16, cumulative = 2.9801e-06
ExecutionTime = 1220.09 s  ClockTime = 1333 s

fieldMinMax minMax write:
    min(mag(U)) = 0 in cell 36960 at location (0.000485708 0 0.05)
    max(mag(U)) = 72.7988 in cell 37866 at location (0.00833079 0.000246581 0.05)

Time = 59.97

smoothSolver:  Solving for Ux, Initial residual = 1.39754e-10, Final residual = 9.56918e-13, No Iterations 1
smoothSolver:  Solving for Uy, Initial residual = 1.64276e-10, Final residual = 9.10401e-13, No Iterations 1
GAMG:  Solving for p, Initial residual = 6.12824e-10, Final residual = 8.36234e-13, No Iterations 1
time step continuity errors : sum local = 1.83945e-14, global = 6.44432e-17, cumulative = 2.9801e-06
ExecutionTime = 1220.27 s  ClockTime = 1333 s

fieldMinMax minMax write:
    min(mag(U)) = 0 in cell 36960 at location (0.000485708 0 0.05)
    max(mag(U)) = 72.7988 in cell 37866 at location (0.00833079 0.000246581 0.05)

Time = 59.98

smoothSolver:  Solving for Ux, Initial residual = 7.27119e-11, Final residual = 7.27119e-11, No Iterations 0
smoothSolver:  Solving for Uy, Initial residual = 1.03017e-10, Final residual = 5.82861e-13, No Iterations 1
GAMG:  Solving for p, Initial residual = 1.98143e-09, Final residual = 1.29471e-12, No Iterations 1
time step continuity errors : sum local = 2.22953e-14, global = 1.6871e-16, cumulative = 2.9801e-06
ExecutionTime = 1220.45 s  ClockTime = 1334 s

fieldMinMax minMax write:
    min(mag(U)) = 0 in cell 36960 at location (0.000485708 0 0.05)
    max(mag(U)) = 72.7988 in cell 37866 at location (0.00833079 0.000246581 0.05)

Time = 59.99

smoothSolver:  Solving for Ux, Initial residual = 9.91981e-11, Final residual = 9.91981e-11, No Iterations 0
smoothSolver:  Solving for Uy, Initial residual = 1.14099e-10, Final residual = 6.81436e-13, No Iterations 1
GAMG:  Solving for p, Initial residual = 3.10358e-09, Final residual = 1.81366e-12, No Iterations 1
time step continuity errors : sum local = 2.65997e-14, global = 3.29721e-17, cumulative = 2.9801e-06
ExecutionTime = 1220.62 s  ClockTime = 1334 s

fieldMinMax minMax write:
    min(mag(U)) = 0 in cell 36960 at location (0.000485708 0 0.05)
    max(mag(U)) = 72.7988 in cell 37866 at location (0.00833079 0.000246581 0.05)

Time = 60

smoothSolver:  Solving for Ux, Initial residual = 1.43013e-10, Final residual = 1.03822e-12, No Iterations 1
smoothSolver:  Solving for Uy, Initial residual = 1.5401e-10, Final residual = 9.10273e-13, No Iterations 1
GAMG:  Solving for p, Initial residual = 8.28693e-10, Final residual = 9.47698e-13, No Iterations 1
time step continuity errors : sum local = 1.93533e-14, global = -4.69647e-17, cumulative = 2.9801e-06
ExecutionTime = 1221.21 s  ClockTime = 1335 s

fieldMinMax minMax write:
    min(mag(U)) = 0 in cell 36960 at location (0.000485708 0 0.05)
    max(mag(U)) = 72.7988 in cell 37866 at location (0.00833079 0.000246581 0.05)

yPlus yPlus write:
    writing field yPlus
    patch topWall y+ : min = 0.0320766, max = 0.316756, average = 0.276069
    patch bottomWall y+ : min = 2.51149, max = 15.24, average = 4.41444
writeCellCentres writeCellCentres write:
    writing cell-volumes field C to 60
    Writing the x component field of the cell-centres Cx to 60
    Writing the y component field of the cell-centres Cy to 60
    Writing the z component field of the cell-centres Cz to 60
wallShearStress wallShearStress write:
    writing field wallShearStress
    min/max(topWall) = (-1.16242e-09 -9.59958e-07 0), (6.6762e-09 -1.02879e-08 0)
    min/max(bottomWall) = (-18.7783 -0.208156 0), (-0.509928 0.0170353 0)
End

