/*---------------------------------------------------------------------------*\
| =========                 |                                                 |
| \\      /  F ield         | OpenFOAM: The Open Source CFD Toolbox           |
|  \\    /   O peration     | Version:  v2012                                 |
|   \\  /    A nd           | Website:  www.openfoam.com                      |
|    \\/     M anipulation  |                                                 |
\*---------------------------------------------------------------------------*/
Build  : _7bdb509494-20201222 OPENFOAM=2012
Arch   : "LSB;label=32;scalar=64"
Exec   : simpleFoam
Date   : Mar 23 2025
Time   : 01:59:14
Host   : Taupok
PID    : 3376
I/O    : uncollated
Case   : /mnt/c/Users/lowjo/OneDrive/Desktop/ASTAR/DASH/testLaminarFlatPlate
nProcs : 1
trapFpe: Floating point exception trapping enabled (FOAM_SIGFPE).
fileModificationChecking : Monitoring run-time modified files using timeStampMaster (fileModificationSkew 5, maxFileModificationPolls 20)
allowSystemOperations : Allowing user-supplied system call operations

// * * * * * * * * * * * * * * * * * * * * * * * * * * * * * * * * * * * * * //
Create time

Create mesh for time = 0


SIMPLE: no convergence criteria found. Calculations will run for 60 steps.

Reading field p

Reading field U

Reading/calculating face flux field phi

Selecting incompressible transport model Newtonian
Selecting turbulence model type laminar
Selecting laminar stress model Stokes
No MRF models present

No finite volume options present

Starting time loop

wallShearStress wallShearStress:
    processing all wall patches

Time = 0.01

smoothSolver:  Solving for Ux, Initial residual = 1, Final residual = 0.0534068, No Iterations 2
smoothSolver:  Solving for Uy, Initial residual = 1, Final residual = 0.0812115, No Iterations 1
GAMG:  Solving for p, Initial residual = 1, Final residual = 0.0983431, No Iterations 14
time step continuity errors : sum local = 2.86313e-08, global = 1.06263e-08, cumulative = 1.06263e-08
ExecutionTime = 1.69 s  ClockTime = 2 s

fieldMinMax minMax write:
    min(mag(U)) = 0 in cell 36960 at location (0.000485708 0 0.05)
    max(mag(U)) = 69.4103 in cell 95780 at location (0.00145827 0.000771229 0.05)

Time = 0.02

smoothSolver:  Solving for Ux, Initial residual = 0.1045, Final residual = 0.00647823, No Iterations 4
smoothSolver:  Solving for Uy, Initial residual = 0.160839, Final residual = 0.0126852, No Iterations 1
GAMG:  Solving for p, Initial residual = 0.00282213, Final residual = 0.000259719, No Iterations 5
time step continuity errors : sum local = 1.18628e-07, global = 4.24748e-09, cumulative = 1.48738e-08
ExecutionTime = 1.99 s  ClockTime = 3 s

fieldMinMax minMax write:
    min(mag(U)) = 0 in cell 36960 at location (0.000485708 0 0.05)
    max(mag(U)) = 69.4188 in cell 94882 at location (0.00145827 0.000727904 0.05)

Time = 0.03

smoothSolver:  Solving for Ux, Initial residual = 0.0438004, Final residual = 0.00296519, No Iterations 5
smoothSolver:  Solving for Uy, Initial residual = 0.0903147, Final residual = 0.00565971, No Iterations 2
GAMG:  Solving for p, Initial residual = 0.00482139, Final residual = 0.00034906, No Iterations 5
time step continuity errors : sum local = 1.20094e-07, global = 5.48267e-09, cumulative = 2.03564e-08
ExecutionTime = 2.28 s  ClockTime = 3 s

fieldMinMax minMax write:
    min(mag(U)) = 0 in cell 36960 at location (0.000485708 0 0.05)
    max(mag(U)) = 69.4315 in cell 287 at location (-0.000598615 1.42118e-06 0.05)

Time = 0.04

smoothSolver:  Solving for Ux, Initial residual = 0.0273776, Final residual = 0.00235567, No Iterations 5
smoothSolver:  Solving for Uy, Initial residual = 0.0575047, Final residual = 0.00360518, No Iterations 2
GAMG:  Solving for p, Initial residual = 0.00653764, Final residual = 0.00058725, No Iterations 3
time step continuity errors : sum local = 1.55943e-07, global = 1.89625e-08, cumulative = 3.93189e-08
ExecutionTime = 2.53 s  ClockTime = 3 s

fieldMinMax minMax write:
    min(mag(U)) = 0 in cell 36960 at location (0.000485708 0 0.05)
    max(mag(U)) = 69.4517 in cell 383 at location (-0.000598615 2.01746e-06 0.05)

Time = 0.05

smoothSolver:  Solving for Ux, Initial residual = 0.0203072, Final residual = 0.0019621, No Iterations 5
smoothSolver:  Solving for Uy, Initial residual = 0.0454691, Final residual = 0.00251331, No Iterations 2
GAMG:  Solving for p, Initial residual = 0.00733839, Final residual = 0.000563535, No Iterations 4
time step continuity errors : sum local = 1.43634e-07, global = 1.25303e-08, cumulative = 5.18493e-08
ExecutionTime = 2.8 s  ClockTime = 4 s

fieldMinMax minMax write:
    min(mag(U)) = 0 in cell 36960 at location (0.000485708 0 0.05)
    max(mag(U)) = 69.4733 in cell 383 at location (-0.000598615 2.01746e-06 0.05)

Time = 0.06

smoothSolver:  Solving for Ux, Initial residual = 0.0163065, Final residual = 0.00108845, No Iterations 6
smoothSolver:  Solving for Uy, Initial residual = 0.0359764, Final residual = 0.00189102, No Iterations 2
GAMG:  Solving for p, Initial residual = 0.00965061, Final residual = 0.000639178, No Iterations 3
time step continuity errors : sum local = 1.27769e-07, global = 7.9677e-09, cumulative = 5.9817e-08
ExecutionTime = 3.06 s  ClockTime = 4 s

fieldMinMax minMax write:
    min(mag(U)) = 0 in cell 36960 at location (0.000485708 0 0.05)
    max(mag(U)) = 69.4971 in cell 479 at location (-0.000598615 2.63079e-06 0.05)

Time = 0.07

smoothSolver:  Solving for Ux, Initial residual = 0.0136243, Final residual = 0.000954599, No Iterations 6
smoothSolver:  Solving for Uy, Initial residual = 0.0310134, Final residual = 0.00299191, No Iterations 1
GAMG:  Solving for p, Initial residual = 0.010597, Final residual = 0.000643114, No Iterations 3
time step continuity errors : sum local = 1.2845e-07, global = 7.62854e-09, cumulative = 6.74455e-08
ExecutionTime = 3.3 s  ClockTime = 4 s

fieldMinMax minMax write:
    min(mag(U)) = 0 in cell 36960 at location (0.000485708 0 0.05)
    max(mag(U)) = 69.5221 in cell 479 at location (-0.000598615 2.63079e-06 0.05)

Time = 0.08

smoothSolver:  Solving for Ux, Initial residual = 0.0117248, Final residual = 0.000850474, No Iterations 6
smoothSolver:  Solving for Uy, Initial residual = 0.0277616, Final residual = 0.00146709, No Iterations 2
GAMG:  Solving for p, Initial residual = 0.0092702, Final residual = 0.000676701, No Iterations 3
time step continuity errors : sum local = 1.34368e-07, global = 6.57977e-09, cumulative = 7.40253e-08
ExecutionTime = 3.56 s  ClockTime = 4 s

fieldMinMax minMax write:
    min(mag(U)) = 0 in cell 36960 at location (0.000485708 0 0.05)
    max(mag(U)) = 69.5478 in cell 575 at location (-0.000598615 3.26165e-06 0.05)

Time = 0.09

smoothSolver:  Solving for Ux, Initial residual = 0.0103038, Final residual = 0.000767055, No Iterations 6
smoothSolver:  Solving for Uy, Initial residual = 0.0247895, Final residual = 0.00225495, No Iterations 1
GAMG:  Solving for p, Initial residual = 0.0104673, Final residual = 0.000651353, No Iterations 3
time step continuity errors : sum local = 1.26198e-07, global = 5.12825e-09, cumulative = 7.91535e-08
ExecutionTime = 3.81 s  ClockTime = 5 s

fieldMinMax minMax write:
    min(mag(U)) = 0 in cell 36960 at location (0.000485708 0 0.05)
    max(mag(U)) = 69.5753 in cell 575 at location (-0.000598615 3.26165e-06 0.05)

Time = 0.1

smoothSolver:  Solving for Ux, Initial residual = 0.0091974, Final residual = 0.000698637, No Iterations 6
smoothSolver:  Solving for Uy, Initial residual = 0.0230015, Final residual = 0.00215597, No Iterations 1
GAMG:  Solving for p, Initial residual = 0.0102209, Final residual = 0.00102119, No Iterations 2
time step continuity errors : sum local = 1.93162e-07, global = 9.00283e-09, cumulative = 8.81563e-08
ExecutionTime = 4.04 s  ClockTime = 5 s

fieldMinMax minMax write:
    min(mag(U)) = 0 in cell 36960 at location (0.000485708 0 0.05)
    max(mag(U)) = 69.6031 in cell 575 at location (-0.000598615 3.26165e-06 0.05)

Time = 0.11

smoothSolver:  Solving for Ux, Initial residual = 0.00830946, Final residual = 0.000641442, No Iterations 6
smoothSolver:  Solving for Uy, Initial residual = 0.021242, Final residual = 0.00200625, No Iterations 1
GAMG:  Solving for p, Initial residual = 0.0098944, Final residual = 0.000776094, No Iterations 3
time step continuity errors : sum local = 1.47208e-07, global = 6.25519e-09, cumulative = 9.44115e-08
ExecutionTime = 4.29 s  ClockTime = 5 s

fieldMinMax minMax write:
    min(mag(U)) = 0 in cell 36960 at location (0.000485708 0 0.05)
    max(mag(U)) = 69.6321 in cell 671 at location (-0.000598615 3.91054e-06 0.05)

Time = 0.12

smoothSolver:  Solving for Ux, Initial residual = 0.00757986, Final residual = 0.000592884, No Iterations 6
smoothSolver:  Solving for Uy, Initial residual = 0.0196867, Final residual = 0.00185166, No Iterations 1
GAMG:  Solving for p, Initial residual = 0.0100265, Final residual = 0.000625852, No Iterations 3
time step continuity errors : sum local = 1.13111e-07, global = 5.73875e-09, cumulative = 1.0015e-07
ExecutionTime = 4.54 s  ClockTime = 5 s

fieldMinMax minMax write:
    min(mag(U)) = 0 in cell 36960 at location (0.000485708 0 0.05)
    max(mag(U)) = 69.6621 in cell 671 at location (-0.000598615 3.91054e-06 0.05)

Time = 0.13

smoothSolver:  Solving for Ux, Initial residual = 0.00696902, Final residual = 0.000551121, No Iterations 6
smoothSolver:  Solving for Uy, Initial residual = 0.0181582, Final residual = 0.00170469, No Iterations 1
GAMG:  Solving for p, Initial residual = 0.00974927, Final residual = 0.000927107, No Iterations 2
time step continuity errors : sum local = 1.64116e-07, global = 6.53655e-09, cumulative = 1.06687e-07
ExecutionTime = 4.76 s  ClockTime = 6 s

fieldMinMax minMax write:
    min(mag(U)) = 0 in cell 36960 at location (0.000485708 0 0.05)
    max(mag(U)) = 69.6923 in cell 671 at location (-0.000598615 3.91054e-06 0.05)

Time = 0.14

smoothSolver:  Solving for Ux, Initial residual = 0.0064496, Final residual = 0.0005148, No Iterations 6
smoothSolver:  Solving for Uy, Initial residual = 0.016938, Final residual = 0.00157179, No Iterations 1
GAMG:  Solving for p, Initial residual = 0.00954494, Final residual = 0.000679488, No Iterations 3
time step continuity errors : sum local = 1.20523e-07, global = 5.57683e-09, cumulative = 1.12264e-07
ExecutionTime = 5.03 s  ClockTime = 6 s

fieldMinMax minMax write:
    min(mag(U)) = 0 in cell 36960 at location (0.000485708 0 0.05)
    max(mag(U)) = 69.7239 in cell 767 at location (-0.000598615 4.57796e-06 0.05)

Time = 0.15

smoothSolver:  Solving for Ux, Initial residual = 0.00600211, Final residual = 0.000482909, No Iterations 6
smoothSolver:  Solving for Uy, Initial residual = 0.0156977, Final residual = 0.00145184, No Iterations 1
GAMG:  Solving for p, Initial residual = 0.00949461, Final residual = 0.000906034, No Iterations 2
time step continuity errors : sum local = 1.56189e-07, global = 6.0011e-09, cumulative = 1.18265e-07
ExecutionTime = 5.26 s  ClockTime = 6 s

fieldMinMax minMax write:
    min(mag(U)) = 0 in cell 36960 at location (0.000485708 0 0.05)
    max(mag(U)) = 69.7562 in cell 767 at location (-0.000598615 4.57796e-06 0.05)

Time = 0.16

smoothSolver:  Solving for Ux, Initial residual = 0.00561227, Final residual = 0.000454668, No Iterations 6
smoothSolver:  Solving for Uy, Initial residual = 0.0147764, Final residual = 0.00134628, No Iterations 1
GAMG:  Solving for p, Initial residual = 0.00927074, Final residual = 0.000664483, No Iterations 3
time step continuity errors : sum local = 1.14834e-07, global = 4.46419e-09, cumulative = 1.22729e-07
ExecutionTime = 5.51 s  ClockTime = 6 s

fieldMinMax minMax write:
    min(mag(U)) = 0 in cell 36960 at location (0.000485708 0 0.05)
    max(mag(U)) = 69.7887 in cell 767 at location (-0.000598615 4.57796e-06 0.05)

Time = 0.17

smoothSolver:  Solving for Ux, Initial residual = 0.00526951, Final residual = 0.000429483, No Iterations 6
smoothSolver:  Solving for Uy, Initial residual = 0.0138669, Final residual = 0.00125329, No Iterations 1
GAMG:  Solving for p, Initial residual = 0.00916747, Final residual = 0.000879861, No Iterations 2
time step continuity errors : sum local = 1.48355e-07, global = 4.55232e-09, cumulative = 1.27281e-07
ExecutionTime = 5.74 s  ClockTime = 7 s

fieldMinMax minMax write:
    min(mag(U)) = 0 in cell 36960 at location (0.000485708 0 0.05)
    max(mag(U)) = 69.8223 in cell 863 at location (-0.000598615 5.26446e-06 0.05)

Time = 0.18

smoothSolver:  Solving for Ux, Initial residual = 0.00496565, Final residual = 0.000406879, No Iterations 6
smoothSolver:  Solving for Uy, Initial residual = 0.0131435, Final residual = 0.00117156, No Iterations 1
GAMG:  Solving for p, Initial residual = 0.00894558, Final residual = 0.000637873, No Iterations 3
time step continuity errors : sum local = 1.07939e-07, global = 2.42017e-09, cumulative = 1.29701e-07
ExecutionTime = 6.03 s  ClockTime = 7 s

fieldMinMax minMax write:
    min(mag(U)) = 0 in cell 36960 at location (0.000485708 0 0.05)
    max(mag(U)) = 69.8568 in cell 863 at location (-0.000598615 5.26446e-06 0.05)

Time = 0.19

smoothSolver:  Solving for Ux, Initial residual = 0.00469438, Final residual = 0.000386476, No Iterations 6
smoothSolver:  Solving for Uy, Initial residual = 0.0124455, Final residual = 0.00109923, No Iterations 1
GAMG:  Solving for p, Initial residual = 0.00877888, Final residual = 0.000864121, No Iterations 2
time step continuity errors : sum local = 1.43367e-07, global = 2.02723e-09, cumulative = 1.31729e-07
ExecutionTime = 6.27 s  ClockTime = 7 s

fieldMinMax minMax write:
    min(mag(U)) = 0 in cell 36960 at location (0.000485708 0 0.05)
    max(mag(U)) = 69.8914 in cell 863 at location (-0.000598615 5.26446e-06 0.05)

Time = 0.2

smoothSolver:  Solving for Ux, Initial residual = 0.00445053, Final residual = 0.000367959, No Iterations 6
smoothSolver:  Solving for Uy, Initial residual = 0.0118588, Final residual = 0.00103547, No Iterations 1
GAMG:  Solving for p, Initial residual = 0.00857392, Final residual = 0.000624768, No Iterations 3
time step continuity errors : sum local = 1.04115e-07, global = 1.30952e-10, cumulative = 1.3186e-07
ExecutionTime = 6.54 s  ClockTime = 7 s

fieldMinMax minMax write:
    min(mag(U)) = 0 in cell 36960 at location (0.000485708 0 0.05)
    max(mag(U)) = 69.9266 in cell 959 at location (-0.000598615 5.97058e-06 0.05)

Time = 0.21

smoothSolver:  Solving for Ux, Initial residual = 0.00423014, Final residual = 0.000351073, No Iterations 6
smoothSolver:  Solving for Uy, Initial residual = 0.0112832, Final residual = 0.000978117, No Iterations 1
GAMG:  Solving for p, Initial residual = 0.00838174, Final residual = 0.00050539, No Iterations 3
time step continuity errors : sum local = 8.29807e-08, global = -2.03475e-11, cumulative = 1.31839e-07
ExecutionTime = 6.85 s  ClockTime = 8 s

fieldMinMax minMax write:
    min(mag(U)) = 0 in cell 36960 at location (0.000485708 0 0.05)
    max(mag(U)) = 69.9631 in cell 959 at location (-0.000598615 5.97058e-06 0.05)

Time = 0.22

smoothSolver:  Solving for Ux, Initial residual = 0.00402999, Final residual = 0.000335619, No Iterations 6
smoothSolver:  Solving for Uy, Initial residual = 0.0107785, Final residual = 0.000926874, No Iterations 1
GAMG:  Solving for p, Initial residual = 0.00802203, Final residual = 0.000800007, No Iterations 2
time step continuity errors : sum local = 1.31261e-07, global = -3.96284e-10, cumulative = 1.31443e-07
ExecutionTime = 7.08 s  ClockTime = 8 s

fieldMinMax minMax write:
    min(mag(U)) = 0 in cell 36960 at location (0.000485708 0 0.05)
    max(mag(U)) = 69.9996 in cell 959 at location (-0.000598615 5.97058e-06 0.05)

Time = 0.23

smoothSolver:  Solving for Ux, Initial residual = 0.00384732, Final residual = 0.000321417, No Iterations 6
smoothSolver:  Solving for Uy, Initial residual = 0.0103456, Final residual = 0.000881599, No Iterations 1
GAMG:  Solving for p, Initial residual = 0.00789441, Final residual = 0.000597587, No Iterations 3
time step continuity errors : sum local = 9.85865e-08, global = -1.08058e-09, cumulative = 1.30362e-07
ExecutionTime = 7.33 s  ClockTime = 8 s

fieldMinMax minMax write:
    min(mag(U)) = 0 in cell 36960 at location (0.000485708 0 0.05)
    max(mag(U)) = 70.0363 in cell 959 at location (-0.000598615 5.97058e-06 0.05)

Time = 0.24

smoothSolver:  Solving for Ux, Initial residual = 0.0036799, Final residual = 0.000308312, No Iterations 6
smoothSolver:  Solving for Uy, Initial residual = 0.00992692, Final residual = 0.000839508, No Iterations 1
GAMG:  Solving for p, Initial residual = 0.0077657, Final residual = 0.000510776, No Iterations 3
time step continuity errors : sum local = 8.33113e-08, global = -3.92948e-10, cumulative = 1.29969e-07
ExecutionTime = 7.61 s  ClockTime = 9 s

fieldMinMax minMax write:
    min(mag(U)) = 0 in cell 36960 at location (0.000485708 0 0.05)
    max(mag(U)) = 70.0743 in cell 1055 at location (-0.000598615 6.69688e-06 0.05)

Time = 0.25

smoothSolver:  Solving for Ux, Initial residual = 0.00352595, Final residual = 0.000296193, No Iterations 6
smoothSolver:  Solving for Uy, Initial residual = 0.00952855, Final residual = 0.000801661, No Iterations 1
GAMG:  Solving for p, Initial residual = 0.00745914, Final residual = 0.000487596, No Iterations 3
time step continuity errors : sum local = 7.95471e-08, global = -9.48752e-12, cumulative = 1.2996e-07
ExecutionTime = 7.87 s  ClockTime = 9 s

fieldMinMax minMax write:
    min(mag(U)) = 0 in cell 36960 at location (0.000485708 0 0.05)
    max(mag(U)) = 70.1126 in cell 1055 at location (-0.000598615 6.69688e-06 0.05)

Time = 0.26

smoothSolver:  Solving for Ux, Initial residual = 0.00338383, Final residual = 0.000284944, No Iterations 6
smoothSolver:  Solving for Uy, Initial residual = 0.0091649, Final residual = 0.000767465, No Iterations 1
GAMG:  Solving for p, Initial residual = 0.00721515, Final residual = 0.000492221, No Iterations 3
time step continuity errors : sum local = 8.02435e-08, global = -2.26946e-10, cumulative = 1.29733e-07
ExecutionTime = 8.12 s  ClockTime = 9 s

fieldMinMax minMax write:
    min(mag(U)) = 0 in cell 36960 at location (0.000485708 0 0.05)
    max(mag(U)) = 70.151 in cell 1055 at location (-0.000598615 6.69688e-06 0.05)

Time = 0.27

smoothSolver:  Solving for Ux, Initial residual = 0.00325221, Final residual = 0.000274475, No Iterations 6
smoothSolver:  Solving for Uy, Initial residual = 0.00882582, Final residual = 0.000736223, No Iterations 1
GAMG:  Solving for p, Initial residual = 0.00705902, Final residual = 0.000504602, No Iterations 3
time step continuity errors : sum local = 8.19451e-08, global = -1.63889e-10, cumulative = 1.29569e-07
ExecutionTime = 8.38 s  ClockTime = 9 s

fieldMinMax minMax write:
    min(mag(U)) = 0 in cell 36960 at location (0.000485708 0 0.05)
    max(mag(U)) = 70.1898 in cell 1151 at location (-0.000598615 7.44394e-06 0.05)

Time = 0.28

smoothSolver:  Solving for Ux, Initial residual = 0.00313001, Final residual = 0.000264711, No Iterations 6
smoothSolver:  Solving for Uy, Initial residual = 0.00849722, Final residual = 0.000707833, No Iterations 1
GAMG:  Solving for p, Initial residual = 0.00692238, Final residual = 0.000518847, No Iterations 3
time step continuity errors : sum local = 8.38744e-08, global = -3.09461e-10, cumulative = 1.2926e-07
ExecutionTime = 8.64 s  ClockTime = 10 s

fieldMinMax minMax write:
    min(mag(U)) = 0 in cell 36960 at location (0.000485708 0 0.05)
    max(mag(U)) = 70.2297 in cell 1151 at location (-0.000598615 7.44394e-06 0.05)

Time = 0.29

smoothSolver:  Solving for Ux, Initial residual = 0.00301619, Final residual = 0.000255577, No Iterations 6
smoothSolver:  Solving for Uy, Initial residual = 0.0081768, Final residual = 0.000681721, No Iterations 1
GAMG:  Solving for p, Initial residual = 0.00679005, Final residual = 0.000530876, No Iterations 3
time step continuity errors : sum local = 8.54239e-08, global = -5.02717e-10, cumulative = 1.28757e-07
ExecutionTime = 8.89 s  ClockTime = 10 s

fieldMinMax minMax write:
    min(mag(U)) = 0 in cell 36960 at location (0.000485708 0 0.05)
    max(mag(U)) = 70.2696 in cell 1151 at location (-0.000598615 7.44394e-06 0.05)

Time = 0.3

smoothSolver:  Solving for Ux, Initial residual = 0.00290996, Final residual = 0.00024702, No Iterations 6
smoothSolver:  Solving for Uy, Initial residual = 0.00786572, Final residual = 0.000657476, No Iterations 1
GAMG:  Solving for p, Initial residual = 0.00666027, Final residual = 0.000540078, No Iterations 3
time step continuity errors : sum local = 8.65075e-08, global = -7.05758e-10, cumulative = 1.28051e-07
ExecutionTime = 9.14 s  ClockTime = 10 s

fieldMinMax minMax write:
    min(mag(U)) = 0 in cell 36960 at location (0.000485708 0 0.05)
    max(mag(U)) = 70.3095 in cell 1151 at location (-0.000598615 7.44394e-06 0.05)

Time = 0.31

smoothSolver:  Solving for Ux, Initial residual = 0.00281054, Final residual = 0.000238981, No Iterations 6
smoothSolver:  Solving for Uy, Initial residual = 0.00756399, Final residual = 0.000634742, No Iterations 1
GAMG:  Solving for p, Initial residual = 0.00653256, Final residual = 0.000546533, No Iterations 3
time step continuity errors : sum local = 8.71531e-08, global = -8.58392e-10, cumulative = 1.27193e-07
ExecutionTime = 9.38 s  ClockTime = 10 s

fieldMinMax minMax write:
    min(mag(U)) = 0 in cell 36960 at location (0.000485708 0 0.05)
    max(mag(U)) = 70.3501 in cell 1247 at location (-0.000598615 8.21234e-06 0.05)

Time = 0.32

smoothSolver:  Solving for Ux, Initial residual = 0.00271733, Final residual = 0.000231417, No Iterations 6
smoothSolver:  Solving for Uy, Initial residual = 0.00727127, Final residual = 0.000613388, No Iterations 1
GAMG:  Solving for p, Initial residual = 0.00640972, Final residual = 0.00055099, No Iterations 3
time step continuity errors : sum local = 8.74888e-08, global = -9.34692e-10, cumulative = 1.26258e-07
ExecutionTime = 9.64 s  ClockTime = 11 s

fieldMinMax minMax write:
    min(mag(U)) = 0 in cell 36960 at location (0.000485708 0 0.05)
    max(mag(U)) = 70.3913 in cell 1247 at location (-0.000598615 8.21234e-06 0.05)

Time = 0.33

smoothSolver:  Solving for Ux, Initial residual = 0.00262974, Final residual = 0.000224288, No Iterations 6
smoothSolver:  Solving for Uy, Initial residual = 0.00698754, Final residual = 0.000593226, No Iterations 1
GAMG:  Solving for p, Initial residual = 0.00629912, Final residual = 0.000554398, No Iterations 3
time step continuity errors : sum local = 8.7665e-08, global = -9.36319e-10, cumulative = 1.25322e-07
ExecutionTime = 9.89 s  ClockTime = 11 s

fieldMinMax minMax write:
    min(mag(U)) = 0 in cell 36960 at location (0.000485708 0 0.05)
    max(mag(U)) = 70.4325 in cell 1247 at location (-0.000598615 8.21234e-06 0.05)

Time = 0.34

smoothSolver:  Solving for Ux, Initial residual = 0.00254726, Final residual = 0.000217554, No Iterations 6
smoothSolver:  Solving for Uy, Initial residual = 0.00671279, Final residual = 0.000574177, No Iterations 1
GAMG:  Solving for p, Initial residual = 0.00621216, Final residual = 0.000557605, No Iterations 3
time step continuity errors : sum local = 8.78101e-08, global = -8.83411e-10, cumulative = 1.24438e-07
ExecutionTime = 10.15 s  ClockTime = 11 s

fieldMinMax minMax write:
    min(mag(U)) = 0 in cell 36960 at location (0.000485708 0 0.05)
    max(mag(U)) = 70.4737 in cell 1247 at location (-0.000598615 8.21234e-06 0.05)

Time = 0.35

smoothSolver:  Solving for Ux, Initial residual = 0.0024695, Final residual = 0.000211188, No Iterations 6
smoothSolver:  Solving for Uy, Initial residual = 0.00644664, Final residual = 0.000556136, No Iterations 1
GAMG:  Solving for p, Initial residual = 0.00614168, Final residual = 0.000561053, No Iterations 3
time step continuity errors : sum local = 8.7988e-08, global = -7.89802e-10, cumulative = 1.23649e-07
ExecutionTime = 10.4 s  ClockTime = 11 s

fieldMinMax minMax write:
    min(mag(U)) = 0 in cell 36960 at location (0.000485708 0 0.05)
    max(mag(U)) = 70.5153 in cell 1343 at location (-0.000598615 9.0027e-06 0.05)

Time = 0.36

smoothSolver:  Solving for Ux, Initial residual = 0.00239601, Final residual = 0.000205155, No Iterations 6
smoothSolver:  Solving for Uy, Initial residual = 0.00618872, Final residual = 0.000539013, No Iterations 1
GAMG:  Solving for p, Initial residual = 0.00607685, Final residual = 0.00056475, No Iterations 3
time step continuity errors : sum local = 8.82052e-08, global = -6.94034e-10, cumulative = 1.22955e-07
ExecutionTime = 10.65 s  ClockTime = 12 s

fieldMinMax minMax write:
    min(mag(U)) = 0 in cell 36960 at location (0.000485708 0 0.05)
    max(mag(U)) = 70.5576 in cell 1343 at location (-0.000598615 9.0027e-06 0.05)

Time = 0.37

smoothSolver:  Solving for Ux, Initial residual = 0.00232649, Final residual = 0.000199434, No Iterations 6
smoothSolver:  Solving for Uy, Initial residual = 0.0059388, Final residual = 0.000522738, No Iterations 1
GAMG:  Solving for p, Initial residual = 0.00601328, Final residual = 0.000568801, No Iterations 3
time step continuity errors : sum local = 8.84713e-08, global = -6.28616e-10, cumulative = 1.22326e-07
ExecutionTime = 10.92 s  ClockTime = 12 s

fieldMinMax minMax write:
    min(mag(U)) = 0 in cell 36960 at location (0.000485708 0 0.05)
    max(mag(U)) = 70.5998 in cell 1343 at location (-0.000598615 9.0027e-06 0.05)

Time = 0.38

smoothSolver:  Solving for Ux, Initial residual = 0.0022606, Final residual = 0.000193999, No Iterations 6
smoothSolver:  Solving for Uy, Initial residual = 0.00569753, Final residual = 0.000507254, No Iterations 1
GAMG:  Solving for p, Initial residual = 0.00594694, Final residual = 0.000571246, No Iterations 3
time step continuity errors : sum local = 8.85279e-08, global = -4.93909e-10, cumulative = 1.21832e-07
ExecutionTime = 11.16 s  ClockTime = 12 s

fieldMinMax minMax write:
    min(mag(U)) = 0 in cell 36960 at location (0.000485708 0 0.05)
    max(mag(U)) = 70.6419 in cell 1343 at location (-0.000598615 9.0027e-06 0.05)

Time = 0.39

smoothSolver:  Solving for Ux, Initial residual = 0.00219808, Final residual = 0.00018883, No Iterations 6
smoothSolver:  Solving for Uy, Initial residual = 0.00546421, Final residual = 0.000492513, No Iterations 1
GAMG:  Solving for p, Initial residual = 0.00588427, Final residual = 0.000573881, No Iterations 3
time step continuity errors : sum local = 8.85671e-08, global = -5.44085e-10, cumulative = 1.21288e-07
ExecutionTime = 11.42 s  ClockTime = 12 s

fieldMinMax minMax write:
    min(mag(U)) = 0 in cell 36960 at location (0.000485708 0 0.05)
    max(mag(U)) = 70.6839 in cell 1439 at location (-0.000598615 9.81565e-06 0.05)

Time = 0.4

smoothSolver:  Solving for Ux, Initial residual = 0.00213866, Final residual = 0.000183907, No Iterations 6
smoothSolver:  Solving for Uy, Initial residual = 0.00524029, Final residual = 0.000478471, No Iterations 1
GAMG:  Solving for p, Initial residual = 0.00581678, Final residual = 0.000574208, No Iterations 3
time step continuity errors : sum local = 8.83176e-08, global = -5.56556e-10, cumulative = 1.20731e-07
ExecutionTime = 11.67 s  ClockTime = 13 s

fieldMinMax minMax write:
    min(mag(U)) = 0 in cell 36960 at location (0.000485708 0 0.05)
    max(mag(U)) = 70.727 in cell 1439 at location (-0.000598615 9.81565e-06 0.05)

Time = 0.41

smoothSolver:  Solving for Ux, Initial residual = 0.00208213, Final residual = 0.000179215, No Iterations 6
smoothSolver:  Solving for Uy, Initial residual = 0.00502654, Final residual = 0.000465096, No Iterations 1
GAMG:  Solving for p, Initial residual = 0.00574835, Final residual = 0.000566944, No Iterations 3
time step continuity errors : sum local = 8.6925e-08, global = 5.5584e-10, cumulative = 1.21287e-07
ExecutionTime = 11.92 s  ClockTime = 13 s

fieldMinMax minMax write:
    min(mag(U)) = 0 in cell 36960 at location (0.000485708 0 0.05)
    max(mag(U)) = 70.7698 in cell 1439 at location (-0.000598615 9.81565e-06 0.05)

Time = 0.42

smoothSolver:  Solving for Ux, Initial residual = 0.00202828, Final residual = 0.000174736, No Iterations 6
smoothSolver:  Solving for Uy, Initial residual = 0.00482356, Final residual = 0.000452347, No Iterations 1
GAMG:  Solving for p, Initial residual = 0.00565921, Final residual = 0.000344395, No Iterations 4
time step continuity errors : sum local = 5.27784e-08, global = 1.08904e-09, cumulative = 1.22376e-07
ExecutionTime = 12.19 s  ClockTime = 13 s

fieldMinMax minMax write:
    min(mag(U)) = 0 in cell 36960 at location (0.000485708 0 0.05)
    max(mag(U)) = 70.8125 in cell 1439 at location (-0.000598615 9.81565e-06 0.05)

Time = 0.43

smoothSolver:  Solving for Ux, Initial residual = 0.00197697, Final residual = 0.000170457, No Iterations 6
smoothSolver:  Solving for Uy, Initial residual = 0.00459671, Final residual = 0.000439579, No Iterations 1
GAMG:  Solving for p, Initial residual = 0.00549266, Final residual = 0.000390635, No Iterations 3
time step continuity errors : sum local = 5.96196e-08, global = 5.885e-10, cumulative = 1.22965e-07
ExecutionTime = 12.44 s  ClockTime = 13 s

fieldMinMax minMax write:
    min(mag(U)) = 0 in cell 36960 at location (0.000485708 0 0.05)
    max(mag(U)) = 70.8551 in cell 1439 at location (-0.000598615 9.81565e-06 0.05)

Time = 0.44

smoothSolver:  Solving for Ux, Initial residual = 0.0019279, Final residual = 0.000166364, No Iterations 6
smoothSolver:  Solving for Uy, Initial residual = 0.00445551, Final residual = 0.00042878, No Iterations 1
GAMG:  Solving for p, Initial residual = 0.00536465, Final residual = 0.000465488, No Iterations 3
time step continuity errors : sum local = 7.11111e-08, global = 6.63502e-10, cumulative = 1.23628e-07
ExecutionTime = 12.7 s  ClockTime = 14 s

fieldMinMax minMax write:
    min(mag(U)) = 0 in cell 36960 at location (0.000485708 0 0.05)
    max(mag(U)) = 70.8975 in cell 1535 at location (-0.000598615 1.06518e-05 0.05)

Time = 0.45

smoothSolver:  Solving for Ux, Initial residual = 0.00188101, Final residual = 0.000162446, No Iterations 6
smoothSolver:  Solving for Uy, Initial residual = 0.0043077, Final residual = 0.000417632, No Iterations 1
GAMG:  Solving for p, Initial residual = 0.00539913, Final residual = 0.000532072, No Iterations 3
time step continuity errors : sum local = 8.1008e-08, global = -3.62179e-10, cumulative = 1.23266e-07
ExecutionTime = 12.96 s  ClockTime = 14 s

fieldMinMax minMax write:
    min(mag(U)) = 0 in cell 36960 at location (0.000485708 0 0.05)
    max(mag(U)) = 70.9407 in cell 1535 at location (-0.000598615 1.06518e-05 0.05)

Time = 0.46

smoothSolver:  Solving for Ux, Initial residual = 0.00183617, Final residual = 0.000158692, No Iterations 6
smoothSolver:  Solving for Uy, Initial residual = 0.00416301, Final residual = 0.000406775, No Iterations 1
GAMG:  Solving for p, Initial residual = 0.00543291, Final residual = 0.00033448, No Iterations 4
time step continuity errors : sum local = 5.07055e-08, global = -1.33605e-10, cumulative = 1.23132e-07
ExecutionTime = 13.22 s  ClockTime = 14 s

fieldMinMax minMax write:
    min(mag(U)) = 0 in cell 36960 at location (0.000485708 0 0.05)
    max(mag(U)) = 70.9837 in cell 1535 at location (-0.000598615 1.06518e-05 0.05)

Time = 0.47

smoothSolver:  Solving for Ux, Initial residual = 0.00179331, Final residual = 0.000155092, No Iterations 6
smoothSolver:  Solving for Uy, Initial residual = 0.00398617, Final residual = 0.000395779, No Iterations 1
GAMG:  Solving for p, Initial residual = 0.00522153, Final residual = 0.00040838, No Iterations 3
time step continuity errors : sum local = 6.2256e-08, global = -1.82971e-10, cumulative = 1.2295e-07
ExecutionTime = 13.49 s  ClockTime = 15 s

fieldMinMax minMax write:
    min(mag(U)) = 0 in cell 36960 at location (0.000485708 0 0.05)
    max(mag(U)) = 71.0265 in cell 1535 at location (-0.000598615 1.06518e-05 0.05)

Time = 0.48

smoothSolver:  Solving for Ux, Initial residual = 0.00175212, Final residual = 0.000151636, No Iterations 6
smoothSolver:  Solving for Uy, Initial residual = 0.00387227, Final residual = 0.000386673, No Iterations 1
GAMG:  Solving for p, Initial residual = 0.0050993, Final residual = 0.00047813, No Iterations 3
time step continuity errors : sum local = 7.29652e-08, global = -4.89019e-10, cumulative = 1.22461e-07
ExecutionTime = 13.74 s  ClockTime = 15 s

fieldMinMax minMax write:
    min(mag(U)) = 0 in cell 36960 at location (0.000485708 0 0.05)
    max(mag(U)) = 71.069 in cell 1535 at location (-0.000598615 1.06518e-05 0.05)

Time = 0.49

smoothSolver:  Solving for Ux, Initial residual = 0.00171262, Final residual = 0.000148316, No Iterations 6
smoothSolver:  Solving for Uy, Initial residual = 0.0037565, Final residual = 0.000211557, No Iterations 2
GAMG:  Solving for p, Initial residual = 0.00600496, Final residual = 0.000531097, No Iterations 3
time step continuity errors : sum local = 8.08029e-08, global = -1.91141e-10, cumulative = 1.22269e-07
ExecutionTime = 13.99 s  ClockTime = 15 s

fieldMinMax minMax write:
    min(mag(U)) = 0 in cell 36960 at location (0.000485708 0 0.05)
    max(mag(U)) = 71.1113 in cell 1535 at location (-0.000598615 1.06518e-05 0.05)

Time = 0.5

smoothSolver:  Solving for Ux, Initial residual = 0.00167473, Final residual = 0.000145125, No Iterations 6
smoothSolver:  Solving for Uy, Initial residual = 0.00359213, Final residual = 0.000310903, No Iterations 1
GAMG:  Solving for p, Initial residual = 0.00536307, Final residual = 0.000315915, No Iterations 4
time step continuity errors : sum local = 4.78725e-08, global = -2.65373e-10, cumulative = 1.22004e-07
ExecutionTime = 14.7 s  ClockTime = 16 s

fieldMinMax minMax write:
    min(mag(U)) = 0 in cell 36960 at location (0.000485708 0 0.05)
    max(mag(U)) = 71.1536 in cell 1631 at location (-0.000598615 1.15119e-05 0.05)

yPlus yPlus write:
    writing field yPlus
    patch topWall y+ : min = 0.00294011, max = 0.122142, average = 0.0965234
    patch bottomWall y+ : min = 0.136606, max = 0.155393, average = 0.138514
writeCellCentres writeCellCentres write:
    writing cell-volumes field C to 0.5
    Writing the x component field of the cell-centres Cx to 0.5
    Writing the y component field of the cell-centres Cy to 0.5
    Writing the z component field of the cell-centres Cz to 0.5
wallShearStress wallShearStress write:
    writing field wallShearStress
    min/max(topWall) = (-2.59052e-10 -2.99284e-08 0), (7.72311e-10 -1.07044e-11 0)
    min/max(bottomWall) = (-60.2625 -0.897406 0), (-46.5728 0.000185318 0)
Time = 0.51

smoothSolver:  Solving for Ux, Initial residual = 0.00163838, Final residual = 0.000142055, No Iterations 6
smoothSolver:  Solving for Uy, Initial residual = 0.0035279, Final residual = 0.000323615, No Iterations 1
GAMG:  Solving for p, Initial residual = 0.00491137, Final residual = 0.000374711, No Iterations 3
time step continuity errors : sum local = 5.73753e-08, global = -4.44531e-10, cumulative = 1.21559e-07
ExecutionTime = 15.37 s  ClockTime = 17 s

fieldMinMax minMax write:
    min(mag(U)) = 0 in cell 36960 at location (0.000485708 0 0.05)
    max(mag(U)) = 71.1962 in cell 1631 at location (-0.000598615 1.15119e-05 0.05)

Time = 0.52

smoothSolver:  Solving for Ux, Initial residual = 0.00160332, Final residual = 0.000139099, No Iterations 6
smoothSolver:  Solving for Uy, Initial residual = 0.00346402, Final residual = 0.000330037, No Iterations 1
GAMG:  Solving for p, Initial residual = 0.00473069, Final residual = 0.000436843, No Iterations 3
time step continuity errors : sum local = 6.70162e-08, global = -9.6988e-10, cumulative = 1.2059e-07
ExecutionTime = 15.63 s  ClockTime = 17 s

fieldMinMax minMax write:
    min(mag(U)) = 0 in cell 36960 at location (0.000485708 0 0.05)
    max(mag(U)) = 71.2386 in cell 1631 at location (-0.000598615 1.15119e-05 0.05)

Time = 0.53

smoothSolver:  Solving for Ux, Initial residual = 0.0015696, Final residual = 0.000136251, No Iterations 6
smoothSolver:  Solving for Uy, Initial residual = 0.00339867, Final residual = 0.000330178, No Iterations 1
GAMG:  Solving for p, Initial residual = 0.00474471, Final residual = 0.000278897, No Iterations 4
time step continuity errors : sum local = 4.26843e-08, global = -5.59507e-10, cumulative = 1.2003e-07
ExecutionTime = 15.9 s  ClockTime = 18 s

fieldMinMax minMax write:
    min(mag(U)) = 0 in cell 36960 at location (0.000485708 0 0.05)
    max(mag(U)) = 71.2807 in cell 1631 at location (-0.000598615 1.15119e-05 0.05)

Time = 0.54

smoothSolver:  Solving for Ux, Initial residual = 0.00153719, Final residual = 0.000133505, No Iterations 6
smoothSolver:  Solving for Uy, Initial residual = 0.00335925, Final residual = 0.000326572, No Iterations 1
GAMG:  Solving for p, Initial residual = 0.00458514, Final residual = 0.000371974, No Iterations 3
time step continuity errors : sum local = 5.73416e-08, global = -7.33916e-10, cumulative = 1.19296e-07
ExecutionTime = 16.15 s  ClockTime = 18 s

fieldMinMax minMax write:
    min(mag(U)) = 0 in cell 36960 at location (0.000485708 0 0.05)
    max(mag(U)) = 71.3225 in cell 1631 at location (-0.000598615 1.15119e-05 0.05)

Time = 0.55

smoothSolver:  Solving for Ux, Initial residual = 0.00150589, Final residual = 0.000130857, No Iterations 6
smoothSolver:  Solving for Uy, Initial residual = 0.00329039, Final residual = 0.000322528, No Iterations 1
GAMG:  Solving for p, Initial residual = 0.0045308, Final residual = 0.000447837, No Iterations 3
time step continuity errors : sum local = 6.92424e-08, global = -9.35341e-10, cumulative = 1.18361e-07
ExecutionTime = 16.41 s  ClockTime = 18 s

fieldMinMax minMax write:
    min(mag(U)) = 0 in cell 36960 at location (0.000485708 0 0.05)
    max(mag(U)) = 71.3639 in cell 1631 at location (-0.000598615 1.15119e-05 0.05)

Time = 0.56

smoothSolver:  Solving for Ux, Initial residual = 0.00147573, Final residual = 0.0001283, No Iterations 6
smoothSolver:  Solving for Uy, Initial residual = 0.00322656, Final residual = 0.00031679, No Iterations 1
GAMG:  Solving for p, Initial residual = 0.00454882, Final residual = 0.000285374, No Iterations 4
time step continuity errors : sum local = 4.42004e-08, global = -5.64383e-10, cumulative = 1.17796e-07
ExecutionTime = 16.69 s  ClockTime = 18 s

fieldMinMax minMax write:
    min(mag(U)) = 0 in cell 36960 at location (0.000485708 0 0.05)
    max(mag(U)) = 71.4051 in cell 1631 at location (-0.000598615 1.15119e-05 0.05)

Time = 0.57

smoothSolver:  Solving for Ux, Initial residual = 0.00144669, Final residual = 0.00012583, No Iterations 6
smoothSolver:  Solving for Uy, Initial residual = 0.00319716, Final residual = 0.000310091, No Iterations 1
GAMG:  Solving for p, Initial residual = 0.00436475, Final residual = 0.000358695, No Iterations 3
time step continuity errors : sum local = 5.61169e-08, global = -6.62654e-10, cumulative = 1.17134e-07
ExecutionTime = 16.94 s  ClockTime = 19 s

fieldMinMax minMax write:
    min(mag(U)) = 0 in cell 36960 at location (0.000485708 0 0.05)
    max(mag(U)) = 71.4459 in cell 1631 at location (-0.000598615 1.15119e-05 0.05)

Time = 0.58

smoothSolver:  Solving for Ux, Initial residual = 0.00141856, Final residual = 0.000123444, No Iterations 6
smoothSolver:  Solving for Uy, Initial residual = 0.00313409, Final residual = 0.000304511, No Iterations 1
GAMG:  Solving for p, Initial residual = 0.00429658, Final residual = 0.00042632, No Iterations 3
time step continuity errors : sum local = 6.68082e-08, global = -8.58205e-10, cumulative = 1.16276e-07
ExecutionTime = 17.2 s  ClockTime = 19 s

fieldMinMax minMax write:
    min(mag(U)) = 0 in cell 36960 at location (0.000485708 0 0.05)
    max(mag(U)) = 71.4868 in cell 1727 at location (-0.000598615 1.23966e-05 0.05)

Time = 0.59

smoothSolver:  Solving for Ux, Initial residual = 0.00139141, Final residual = 0.000121136, No Iterations 6
smoothSolver:  Solving for Uy, Initial residual = 0.00307938, Final residual = 0.000298158, No Iterations 1
GAMG:  Solving for p, Initial residual = 0.00432117, Final residual = 0.000274165, No Iterations 4
time step continuity errors : sum local = 4.29252e-08, global = -6.13376e-10, cumulative = 1.15662e-07
ExecutionTime = 17.47 s  ClockTime = 19 s

fieldMinMax minMax write:
    min(mag(U)) = 0 in cell 36960 at location (0.000485708 0 0.05)
    max(mag(U)) = 71.5277 in cell 1727 at location (-0.000598615 1.23966e-05 0.05)

Time = 0.6

smoothSolver:  Solving for Ux, Initial residual = 0.00136524, Final residual = 0.000118904, No Iterations 6
smoothSolver:  Solving for Uy, Initial residual = 0.00306225, Final residual = 0.000291371, No Iterations 1
GAMG:  Solving for p, Initial residual = 0.00416391, Final residual = 0.00035277, No Iterations 3
time step continuity errors : sum local = 5.5668e-08, global = -9.14372e-10, cumulative = 1.14748e-07
ExecutionTime = 17.72 s  ClockTime = 19 s

fieldMinMax minMax write:
    min(mag(U)) = 0 in cell 36960 at location (0.000485708 0 0.05)
    max(mag(U)) = 71.5681 in cell 1727 at location (-0.000598615 1.23966e-05 0.05)

Time = 0.61

smoothSolver:  Solving for Ux, Initial residual = 0.00133983, Final residual = 0.000116743, No Iterations 6
smoothSolver:  Solving for Uy, Initial residual = 0.00300297, Final residual = 0.000285918, No Iterations 1
GAMG:  Solving for p, Initial residual = 0.00410665, Final residual = 0.000246839, No Iterations 4
time step continuity errors : sum local = 3.903e-08, global = -6.49241e-10, cumulative = 1.14099e-07
ExecutionTime = 18.01 s  ClockTime = 20 s

fieldMinMax minMax write:
    min(mag(U)) = 0 in cell 36960 at location (0.000485708 0 0.05)
    max(mag(U)) = 71.6083 in cell 1727 at location (-0.000598615 1.23966e-05 0.05)

Time = 0.62

smoothSolver:  Solving for Ux, Initial residual = 0.00131531, Final residual = 0.00011465, No Iterations 6
smoothSolver:  Solving for Uy, Initial residual = 0.00297506, Final residual = 0.000279475, No Iterations 1
GAMG:  Solving for p, Initial residual = 0.00397381, Final residual = 0.000349787, No Iterations 3
time step continuity errors : sum local = 5.5538e-08, global = -1.01395e-09, cumulative = 1.13085e-07
ExecutionTime = 18.29 s  ClockTime = 20 s

fieldMinMax minMax write:
    min(mag(U)) = 0 in cell 36960 at location (0.000485708 0 0.05)
    max(mag(U)) = 71.648 in cell 1727 at location (-0.000598615 1.23966e-05 0.05)

Time = 0.63

smoothSolver:  Solving for Ux, Initial residual = 0.00129152, Final residual = 0.000112622, No Iterations 6
smoothSolver:  Solving for Uy, Initial residual = 0.00292155, Final residual = 0.000274237, No Iterations 1
GAMG:  Solving for p, Initial residual = 0.00399725, Final residual = 0.000254443, No Iterations 4
time step continuity errors : sum local = 4.04994e-08, global = -6.3646e-10, cumulative = 1.12448e-07
ExecutionTime = 18.56 s  ClockTime = 20 s

fieldMinMax minMax write:
    min(mag(U)) = 0 in cell 36960 at location (0.000485708 0 0.05)
    max(mag(U)) = 71.6874 in cell 1727 at location (-0.000598615 1.23966e-05 0.05)

Time = 0.64

smoothSolver:  Solving for Ux, Initial residual = 0.00126854, Final residual = 0.000110656, No Iterations 6
smoothSolver:  Solving for Uy, Initial residual = 0.00290061, Final residual = 0.000268074, No Iterations 1
GAMG:  Solving for p, Initial residual = 0.00385805, Final residual = 0.000351949, No Iterations 3
time step continuity errors : sum local = 5.64141e-08, global = -9.66609e-10, cumulative = 1.11482e-07
ExecutionTime = 18.81 s  ClockTime = 21 s

fieldMinMax minMax write:
    min(mag(U)) = 0 in cell 36960 at location (0.000485708 0 0.05)
    max(mag(U)) = 71.7264 in cell 1727 at location (-0.000598615 1.23966e-05 0.05)

Time = 0.65

smoothSolver:  Solving for Ux, Initial residual = 0.0012462, Final residual = 0.00010875, No Iterations 6
smoothSolver:  Solving for Uy, Initial residual = 0.00285469, Final residual = 0.000263153, No Iterations 1
GAMG:  Solving for p, Initial residual = 0.00387712, Final residual = 0.000251737, No Iterations 4
time step continuity errors : sum local = 4.04387e-08, global = -5.8869e-10, cumulative = 1.10893e-07
ExecutionTime = 19.09 s  ClockTime = 21 s

fieldMinMax minMax write:
    min(mag(U)) = 0 in cell 36960 at location (0.000485708 0 0.05)
    max(mag(U)) = 71.765 in cell 1727 at location (-0.000598615 1.23966e-05 0.05)

Time = 0.66

smoothSolver:  Solving for Ux, Initial residual = 0.0012246, Final residual = 0.0001069, No Iterations 6
smoothSolver:  Solving for Uy, Initial residual = 0.002837, Final residual = 0.000257349, No Iterations 1
GAMG:  Solving for p, Initial residual = 0.00373128, Final residual = 0.000346582, No Iterations 3
time step continuity errors : sum local = 5.60006e-08, global = -9.04939e-10, cumulative = 1.09988e-07
ExecutionTime = 19.33 s  ClockTime = 21 s

fieldMinMax minMax write:
    min(mag(U)) = 0 in cell 36960 at location (0.000485708 0 0.05)
    max(mag(U)) = 71.8033 in cell 1727 at location (-0.000598615 1.23966e-05 0.05)

Time = 0.67

smoothSolver:  Solving for Ux, Initial residual = 0.0012036, Final residual = 0.000105105, No Iterations 6
smoothSolver:  Solving for Uy, Initial residual = 0.00279698, Final residual = 0.000252736, No Iterations 1
GAMG:  Solving for p, Initial residual = 0.00375387, Final residual = 0.000248779, No Iterations 4
time step continuity errors : sum local = 4.02769e-08, global = -5.59008e-10, cumulative = 1.09429e-07
ExecutionTime = 19.61 s  ClockTime = 21 s

fieldMinMax minMax write:
    min(mag(U)) = 0 in cell 36960 at location (0.000485708 0 0.05)
    max(mag(U)) = 71.8412 in cell 1727 at location (-0.000598615 1.23966e-05 0.05)

Time = 0.68

smoothSolver:  Solving for Ux, Initial residual = 0.00118328, Final residual = 0.000103361, No Iterations 6
smoothSolver:  Solving for Uy, Initial residual = 0.00278186, Final residual = 0.000247264, No Iterations 1
GAMG:  Solving for p, Initial residual = 0.00360839, Final residual = 0.000343095, No Iterations 3
time step continuity errors : sum local = 5.58751e-08, global = -8.93e-10, cumulative = 1.08536e-07
ExecutionTime = 19.86 s  ClockTime = 22 s

fieldMinMax minMax write:
    min(mag(U)) = 0 in cell 36960 at location (0.000485708 0 0.05)
    max(mag(U)) = 71.8787 in cell 1727 at location (-0.000598615 1.23966e-05 0.05)

Time = 0.69

smoothSolver:  Solving for Ux, Initial residual = 0.00116348, Final residual = 0.000101667, No Iterations 6
smoothSolver:  Solving for Uy, Initial residual = 0.00274785, Final residual = 0.000242935, No Iterations 1
GAMG:  Solving for p, Initial residual = 0.00363637, Final residual = 0.000246316, No Iterations 4
time step continuity errors : sum local = 4.01881e-08, global = -5.43279e-10, cumulative = 1.07993e-07
ExecutionTime = 20.14 s  ClockTime = 22 s

fieldMinMax minMax write:
    min(mag(U)) = 0 in cell 36960 at location (0.000485708 0 0.05)
    max(mag(U)) = 71.9158 in cell 1727 at location (-0.000598615 1.23966e-05 0.05)

Time = 0.7

smoothSolver:  Solving for Ux, Initial residual = 0.00114432, Final residual = 0.000100021, No Iterations 6
smoothSolver:  Solving for Uy, Initial residual = 0.00273556, Final residual = 0.00023778, No Iterations 1
GAMG:  Solving for p, Initial residual = 0.00348819, Final residual = 0.000339611, No Iterations 3
time step continuity errors : sum local = 5.57466e-08, global = -8.70484e-10, cumulative = 1.07122e-07
ExecutionTime = 20.4 s  ClockTime = 22 s

fieldMinMax minMax write:
    min(mag(U)) = 0 in cell 36960 at location (0.000485708 0 0.05)
    max(mag(U)) = 71.9526 in cell 1727 at location (-0.000598615 1.23966e-05 0.05)

Time = 0.71

smoothSolver:  Solving for Ux, Initial residual = 0.00112565, Final residual = 9.84209e-05, No Iterations 6
smoothSolver:  Solving for Uy, Initial residual = 0.00270657, Final residual = 0.000233728, No Iterations 1
GAMG:  Solving for p, Initial residual = 0.00352212, Final residual = 0.000243934, No Iterations 4
time step continuity errors : sum local = 4.01093e-08, global = -5.19915e-10, cumulative = 1.06602e-07
ExecutionTime = 20.68 s  ClockTime = 22 s

fieldMinMax minMax write:
    min(mag(U)) = 0 in cell 36960 at location (0.000485708 0 0.05)
    max(mag(U)) = 71.9892 in cell 1823 at location (-0.000598615 1.33065e-05 0.05)

Time = 0.72

smoothSolver:  Solving for Ux, Initial residual = 0.00110755, Final residual = 9.68643e-05, No Iterations 6
smoothSolver:  Solving for Uy, Initial residual = 0.00269594, Final residual = 0.000228877, No Iterations 1
GAMG:  Solving for p, Initial residual = 0.00337154, Final residual = 0.00033623, No Iterations 3
time step continuity errors : sum local = 5.5624e-08, global = -8.30389e-10, cumulative = 1.05772e-07
ExecutionTime = 20.93 s  ClockTime = 23 s

fieldMinMax minMax write:
    min(mag(U)) = 0 in cell 36960 at location (0.000485708 0 0.05)
    max(mag(U)) = 72.0255 in cell 1823 at location (-0.000598615 1.33065e-05 0.05)

Time = 0.73

smoothSolver:  Solving for Ux, Initial residual = 0.0010899, Final residual = 9.53499e-05, No Iterations 6
smoothSolver:  Solving for Uy, Initial residual = 0.00267091, Final residual = 0.000225074, No Iterations 1
GAMG:  Solving for p, Initial residual = 0.00341085, Final residual = 0.000241496, No Iterations 4
time step continuity errors : sum local = 4.00131e-08, global = -4.93909e-10, cumulative = 1.05278e-07
ExecutionTime = 21.21 s  ClockTime = 23 s

fieldMinMax minMax write:
    min(mag(U)) = 0 in cell 36960 at location (0.000485708 0 0.05)
    max(mag(U)) = 72.0614 in cell 1823 at location (-0.000598615 1.33065e-05 0.05)

Time = 0.74

smoothSolver:  Solving for Ux, Initial residual = 0.00107279, Final residual = 9.38761e-05, No Iterations 6
smoothSolver:  Solving for Uy, Initial residual = 0.00266065, Final residual = 0.000220497, No Iterations 1
GAMG:  Solving for p, Initial residual = 0.00325926, Final residual = 0.000195125, No Iterations 4
time step continuity errors : sum local = 3.25277e-08, global = -4.42844e-10, cumulative = 1.04835e-07
ExecutionTime = 21.49 s  ClockTime = 23 s

fieldMinMax minMax write:
    min(mag(U)) = 0 in cell 36960 at location (0.000485708 0 0.05)
    max(mag(U)) = 72.0969 in cell 1823 at location (-0.000598615 1.33065e-05 0.05)

Time = 0.75

smoothSolver:  Solving for Ux, Initial residual = 0.0010561, Final residual = 9.2441e-05, No Iterations 6
smoothSolver:  Solving for Uy, Initial residual = 0.00264443, Final residual = 0.000216614, No Iterations 1
GAMG:  Solving for p, Initial residual = 0.00313189, Final residual = 0.000186868, No Iterations 4
time step continuity errors : sum local = 3.12533e-08, global = -4.33077e-10, cumulative = 1.04402e-07
ExecutionTime = 21.77 s  ClockTime = 24 s

fieldMinMax minMax write:
    min(mag(U)) = 0 in cell 36960 at location (0.000485708 0 0.05)
    max(mag(U)) = 72.132 in cell 1823 at location (-0.000598615 1.33065e-05 0.05)

Time = 0.76

smoothSolver:  Solving for Ux, Initial residual = 0.00103986, Final residual = 9.10434e-05, No Iterations 6
smoothSolver:  Solving for Uy, Initial residual = 0.00262125, Final residual = 0.000212786, No Iterations 1
GAMG:  Solving for p, Initial residual = 0.0030857, Final residual = 0.000191348, No Iterations 4
time step continuity errors : sum local = 3.20914e-08, global = -4.42593e-10, cumulative = 1.03959e-07
ExecutionTime = 22.05 s  ClockTime = 24 s

fieldMinMax minMax write:
    min(mag(U)) = 0 in cell 36960 at location (0.000485708 0 0.05)
    max(mag(U)) = 72.1667 in cell 1823 at location (-0.000598615 1.33065e-05 0.05)

Time = 0.77

smoothSolver:  Solving for Ux, Initial residual = 0.00102405, Final residual = 8.96819e-05, No Iterations 6
smoothSolver:  Solving for Uy, Initial residual = 0.00260062, Final residual = 0.00020902, No Iterations 1
GAMG:  Solving for p, Initial residual = 0.00304579, Final residual = 0.000195068, No Iterations 4
time step continuity errors : sum local = 3.28272e-08, global = -4.36049e-10, cumulative = 1.03523e-07
ExecutionTime = 22.32 s  ClockTime = 24 s

fieldMinMax minMax write:
    min(mag(U)) = 0 in cell 36960 at location (0.000485708 0 0.05)
    max(mag(U)) = 72.201 in cell 1823 at location (-0.000598615 1.33065e-05 0.05)

Time = 0.78

smoothSolver:  Solving for Ux, Initial residual = 0.00100865, Final residual = 8.83549e-05, No Iterations 6
smoothSolver:  Solving for Uy, Initial residual = 0.00258158, Final residual = 0.000205349, No Iterations 1
GAMG:  Solving for p, Initial residual = 0.00300033, Final residual = 0.00019551, No Iterations 4
time step continuity errors : sum local = 3.3029e-08, global = -4.18107e-10, cumulative = 1.03105e-07
ExecutionTime = 22.6 s  ClockTime = 24 s

fieldMinMax minMax write:
    min(mag(U)) = 0 in cell 36960 at location (0.000485708 0 0.05)
    max(mag(U)) = 72.2348 in cell 1823 at location (-0.000598615 1.33065e-05 0.05)

Time = 0.79

smoothSolver:  Solving for Ux, Initial residual = 0.000993645, Final residual = 8.70613e-05, No Iterations 6
smoothSolver:  Solving for Uy, Initial residual = 0.00256143, Final residual = 0.000201782, No Iterations 1
GAMG:  Solving for p, Initial residual = 0.00295058, Final residual = 0.000194174, No Iterations 4
time step continuity errors : sum local = 3.293e-08, global = -4.03098e-10, cumulative = 1.02702e-07
ExecutionTime = 22.87 s  ClockTime = 25 s

fieldMinMax minMax write:
    min(mag(U)) = 0 in cell 36960 at location (0.000485708 0 0.05)
    max(mag(U)) = 72.2683 in cell 1823 at location (-0.000598615 1.33065e-05 0.05)

Time = 0.8

smoothSolver:  Solving for Ux, Initial residual = 0.000979021, Final residual = 8.57998e-05, No Iterations 6
smoothSolver:  Solving for Uy, Initial residual = 0.00254072, Final residual = 0.000198314, No Iterations 1
GAMG:  Solving for p, Initial residual = 0.00290026, Final residual = 0.000192562, No Iterations 4
time step continuity errors : sum local = 3.27767e-08, global = -3.95147e-10, cumulative = 1.02307e-07
ExecutionTime = 23.15 s  ClockTime = 25 s

fieldMinMax minMax write:
    min(mag(U)) = 0 in cell 36960 at location (0.000485708 0 0.05)
    max(mag(U)) = 72.3015 in cell 1823 at location (-0.000598615 1.33065e-05 0.05)

Time = 0.81

smoothSolver:  Solving for Ux, Initial residual = 0.000964763, Final residual = 8.45693e-05, No Iterations 6
smoothSolver:  Solving for Uy, Initial residual = 0.00251995, Final residual = 0.000194937, No Iterations 1
GAMG:  Solving for p, Initial residual = 0.00285108, Final residual = 0.000191201, No Iterations 4
time step continuity errors : sum local = 3.26611e-08, global = -3.90745e-10, cumulative = 1.01916e-07
ExecutionTime = 23.42 s  ClockTime = 25 s

fieldMinMax minMax write:
    min(mag(U)) = 0 in cell 36960 at location (0.000485708 0 0.05)
    max(mag(U)) = 72.3342 in cell 1823 at location (-0.000598615 1.33065e-05 0.05)

Time = 0.82

smoothSolver:  Solving for Ux, Initial residual = 0.000950859, Final residual = 8.33687e-05, No Iterations 6
smoothSolver:  Solving for Uy, Initial residual = 0.00249921, Final residual = 0.000191651, No Iterations 1
GAMG:  Solving for p, Initial residual = 0.00280296, Final residual = 0.000190064, No Iterations 4
time step continuity errors : sum local = 3.25821e-08, global = -3.85824e-10, cumulative = 1.0153e-07
ExecutionTime = 23.69 s  ClockTime = 26 s

fieldMinMax minMax write:
    min(mag(U)) = 0 in cell 36960 at location (0.000485708 0 0.05)
    max(mag(U)) = 72.3665 in cell 1823 at location (-0.000598615 1.33065e-05 0.05)

Time = 0.83

smoothSolver:  Solving for Ux, Initial residual = 0.000937295, Final residual = 8.2197e-05, No Iterations 6
smoothSolver:  Solving for Uy, Initial residual = 0.00247851, Final residual = 0.000188455, No Iterations 1
GAMG:  Solving for p, Initial residual = 0.0027556, Final residual = 0.000189015, No Iterations 4
time step continuity errors : sum local = 3.25175e-08, global = -3.79117e-10, cumulative = 1.01151e-07
ExecutionTime = 23.96 s  ClockTime = 26 s

fieldMinMax minMax write:
    min(mag(U)) = 0 in cell 36960 at location (0.000485708 0 0.05)
    max(mag(U)) = 72.3985 in cell 1823 at location (-0.000598615 1.33065e-05 0.05)

Time = 0.84

smoothSolver:  Solving for Ux, Initial residual = 0.000924058, Final residual = 8.1053e-05, No Iterations 6
smoothSolver:  Solving for Uy, Initial residual = 0.00245788, Final residual = 0.000185342, No Iterations 1
GAMG:  Solving for p, Initial residual = 0.00270921, Final residual = 0.000187972, No Iterations 4
time step continuity errors : sum local = 3.24526e-08, global = -3.71415e-10, cumulative = 1.0078e-07
ExecutionTime = 24.24 s  ClockTime = 26 s

fieldMinMax minMax write:
    min(mag(U)) = 0 in cell 36960 at location (0.000485708 0 0.05)
    max(mag(U)) = 72.43 in cell 1823 at location (-0.000598615 1.33065e-05 0.05)

Time = 0.85

smoothSolver:  Solving for Ux, Initial residual = 0.000911139, Final residual = 7.9936e-05, No Iterations 6
smoothSolver:  Solving for Uy, Initial residual = 0.00243734, Final residual = 0.00018231, No Iterations 1
GAMG:  Solving for p, Initial residual = 0.00266386, Final residual = 0.000186486, No Iterations 4
time step continuity errors : sum local = 3.23093e-08, global = -5.0644e-10, cumulative = 1.00273e-07
ExecutionTime = 24.51 s  ClockTime = 26 s

fieldMinMax minMax write:
    min(mag(U)) = 0 in cell 36960 at location (0.000485708 0 0.05)
    max(mag(U)) = 72.4612 in cell 1823 at location (-0.000598615 1.33065e-05 0.05)

Time = 0.86

smoothSolver:  Solving for Ux, Initial residual = 0.000898525, Final residual = 7.88449e-05, No Iterations 6
smoothSolver:  Solving for Uy, Initial residual = 0.00241658, Final residual = 0.000179356, No Iterations 1
GAMG:  Solving for p, Initial residual = 0.0026195, Final residual = 0.000185295, No Iterations 4
time step continuity errors : sum local = 3.22064e-08, global = -5.21225e-10, cumulative = 9.97523e-08
ExecutionTime = 24.81 s  ClockTime = 27 s

fieldMinMax minMax write:
    min(mag(U)) = 0 in cell 36960 at location (0.000485708 0 0.05)
    max(mag(U)) = 72.492 in cell 1823 at location (-0.000598615 1.33065e-05 0.05)

Time = 0.87

smoothSolver:  Solving for Ux, Initial residual = 0.000886206, Final residual = 7.77788e-05, No Iterations 6
smoothSolver:  Solving for Uy, Initial residual = 0.00239618, Final residual = 0.000176478, No Iterations 1
GAMG:  Solving for p, Initial residual = 0.00257558, Final residual = 0.000184058, No Iterations 4
time step continuity errors : sum local = 3.21029e-08, global = -5.24192e-10, cumulative = 9.92281e-08
ExecutionTime = 25.09 s  ClockTime = 27 s

fieldMinMax minMax write:
    min(mag(U)) = 0 in cell 36960 at location (0.000485708 0 0.05)
    max(mag(U)) = 72.5225 in cell 1823 at location (-0.000598615 1.33065e-05 0.05)

Time = 0.88

smoothSolver:  Solving for Ux, Initial residual = 0.000874173, Final residual = 7.6737e-05, No Iterations 6
smoothSolver:  Solving for Uy, Initial residual = 0.00237633, Final residual = 0.000173674, No Iterations 1
GAMG:  Solving for p, Initial residual = 0.00253229, Final residual = 0.000182899, No Iterations 4
time step continuity errors : sum local = 3.20141e-08, global = -5.19701e-10, cumulative = 9.87084e-08
ExecutionTime = 25.38 s  ClockTime = 27 s

fieldMinMax minMax write:
    min(mag(U)) = 0 in cell 36960 at location (0.000485708 0 0.05)
    max(mag(U)) = 72.5526 in cell 1823 at location (-0.000598615 1.33065e-05 0.05)

Time = 0.89

smoothSolver:  Solving for Ux, Initial residual = 0.000862415, Final residual = 7.57187e-05, No Iterations 6
smoothSolver:  Solving for Uy, Initial residual = 0.00235688, Final residual = 0.000170942, No Iterations 1
GAMG:  Solving for p, Initial residual = 0.00248997, Final residual = 0.000181815, No Iterations 4
time step continuity errors : sum local = 3.19366e-08, global = -5.1742e-10, cumulative = 9.8191e-08
ExecutionTime = 25.66 s  ClockTime = 28 s

fieldMinMax minMax write:
    min(mag(U)) = 0 in cell 36960 at location (0.000485708 0 0.05)
    max(mag(U)) = 72.5823 in cell 1823 at location (-0.000598615 1.33065e-05 0.05)

Time = 0.9

smoothSolver:  Solving for Ux, Initial residual = 0.000850923, Final residual = 7.4723e-05, No Iterations 6
smoothSolver:  Solving for Uy, Initial residual = 0.00233749, Final residual = 0.000168278, No Iterations 1
GAMG:  Solving for p, Initial residual = 0.0024486, Final residual = 0.000180678, No Iterations 4
time step continuity errors : sum local = 3.1845e-08, global = -5.16761e-10, cumulative = 9.76742e-08
ExecutionTime = 25.93 s  ClockTime = 28 s

fieldMinMax minMax write:
    min(mag(U)) = 0 in cell 36960 at location (0.000485708 0 0.05)
    max(mag(U)) = 72.6116 in cell 1823 at location (-0.000598615 1.33065e-05 0.05)

Time = 0.91

smoothSolver:  Solving for Ux, Initial residual = 0.00083969, Final residual = 7.37493e-05, No Iterations 6
smoothSolver:  Solving for Uy, Initial residual = 0.00231842, Final residual = 0.000165679, No Iterations 1
GAMG:  Solving for p, Initial residual = 0.00240802, Final residual = 0.000179604, No Iterations 4
time step continuity errors : sum local = 3.17649e-08, global = -5.06661e-10, cumulative = 9.71675e-08
ExecutionTime = 26.21 s  ClockTime = 28 s

fieldMinMax minMax write:
    min(mag(U)) = 0 in cell 36960 at location (0.000485708 0 0.05)
    max(mag(U)) = 72.6406 in cell 1823 at location (-0.000598615 1.33065e-05 0.05)

Time = 0.92

smoothSolver:  Solving for Ux, Initial residual = 0.000828706, Final residual = 7.27968e-05, No Iterations 6
smoothSolver:  Solving for Uy, Initial residual = 0.00229954, Final residual = 0.000163142, No Iterations 1
GAMG:  Solving for p, Initial residual = 0.0023685, Final residual = 0.000178415, No Iterations 4
time step continuity errors : sum local = 3.1662e-08, global = -5.06576e-10, cumulative = 9.6661e-08
ExecutionTime = 26.49 s  ClockTime = 28 s

fieldMinMax minMax write:
    min(mag(U)) = 0 in cell 36960 at location (0.000485708 0 0.05)
    max(mag(U)) = 72.6693 in cell 1823 at location (-0.000598615 1.33065e-05 0.05)

Time = 0.93

smoothSolver:  Solving for Ux, Initial residual = 0.000817962, Final residual = 7.18649e-05, No Iterations 6
smoothSolver:  Solving for Uy, Initial residual = 0.00228119, Final residual = 0.000160669, No Iterations 1
GAMG:  Solving for p, Initial residual = 0.00232959, Final residual = 0.000177171, No Iterations 4
time step continuity errors : sum local = 3.15507e-08, global = -5.04995e-10, cumulative = 9.6156e-08
ExecutionTime = 26.76 s  ClockTime = 29 s

fieldMinMax minMax write:
    min(mag(U)) = 0 in cell 36960 at location (0.000485708 0 0.05)
    max(mag(U)) = 72.6976 in cell 1823 at location (-0.000598615 1.33065e-05 0.05)

Time = 0.94

smoothSolver:  Solving for Ux, Initial residual = 0.000807453, Final residual = 7.0953e-05, No Iterations 6
smoothSolver:  Solving for Uy, Initial residual = 0.00226332, Final residual = 0.000158256, No Iterations 1
GAMG:  Solving for p, Initial residual = 0.00229149, Final residual = 0.000175933, No Iterations 4
time step continuity errors : sum local = 3.14398e-08, global = -5.0253e-10, cumulative = 9.56534e-08
ExecutionTime = 27.04 s  ClockTime = 29 s

fieldMinMax minMax write:
    min(mag(U)) = 0 in cell 36960 at location (0.000485708 0 0.05)
    max(mag(U)) = 72.7255 in cell 1823 at location (-0.000598615 1.33065e-05 0.05)

Time = 0.95

smoothSolver:  Solving for Ux, Initial residual = 0.00079717, Final residual = 7.00604e-05, No Iterations 6
smoothSolver:  Solving for Uy, Initial residual = 0.00224573, Final residual = 0.000155902, No Iterations 1
GAMG:  Solving for p, Initial residual = 0.0022543, Final residual = 0.000174699, No Iterations 4
time step continuity errors : sum local = 3.13289e-08, global = -4.99926e-10, cumulative = 9.51535e-08
ExecutionTime = 27.31 s  ClockTime = 29 s

fieldMinMax minMax write:
    min(mag(U)) = 0 in cell 36960 at location (0.000485708 0 0.05)
    max(mag(U)) = 72.7531 in cell 1823 at location (-0.000598615 1.33065e-05 0.05)

Time = 0.96

smoothSolver:  Solving for Ux, Initial residual = 0.000787107, Final residual = 6.91865e-05, No Iterations 6
smoothSolver:  Solving for Uy, Initial residual = 0.00222842, Final residual = 0.000153602, No Iterations 1
GAMG:  Solving for p, Initial residual = 0.00221772, Final residual = 0.000173454, No Iterations 4
time step continuity errors : sum local = 3.12151e-08, global = -4.97754e-10, cumulative = 9.46558e-08
ExecutionTime = 27.59 s  ClockTime = 30 s

fieldMinMax minMax write:
    min(mag(U)) = 0 in cell 36960 at location (0.000485708 0 0.05)
    max(mag(U)) = 72.7804 in cell 1823 at location (-0.000598615 1.33065e-05 0.05)

Time = 0.97

smoothSolver:  Solving for Ux, Initial residual = 0.000777255, Final residual = 6.83307e-05, No Iterations 6
smoothSolver:  Solving for Uy, Initial residual = 0.00221141, Final residual = 0.000151357, No Iterations 1
GAMG:  Solving for p, Initial residual = 0.00218193, Final residual = 0.000172193, No Iterations 4
time step continuity errors : sum local = 3.10976e-08, global = -4.96225e-10, cumulative = 9.41595e-08
ExecutionTime = 27.87 s  ClockTime = 30 s

fieldMinMax minMax write:
    min(mag(U)) = 0 in cell 36960 at location (0.000485708 0 0.05)
    max(mag(U)) = 72.8073 in cell 1823 at location (-0.000598615 1.33065e-05 0.05)

Time = 0.98

smoothSolver:  Solving for Ux, Initial residual = 0.000767611, Final residual = 6.74927e-05, No Iterations 6
smoothSolver:  Solving for Uy, Initial residual = 0.00219474, Final residual = 0.000149164, No Iterations 1
GAMG:  Solving for p, Initial residual = 0.00214668, Final residual = 0.000170917, No Iterations 4
time step continuity errors : sum local = 3.09769e-08, global = -4.95236e-10, cumulative = 9.36643e-08
ExecutionTime = 28.15 s  ClockTime = 30 s

fieldMinMax minMax write:
    min(mag(U)) = 0 in cell 36960 at location (0.000485708 0 0.05)
    max(mag(U)) = 72.834 in cell 1727 at location (-0.000598615 1.23966e-05 0.05)

Time = 0.99

smoothSolver:  Solving for Ux, Initial residual = 0.000758165, Final residual = 6.66716e-05, No Iterations 6
smoothSolver:  Solving for Uy, Initial residual = 0.00217845, Final residual = 0.000147022, No Iterations 1
GAMG:  Solving for p, Initial residual = 0.00211198, Final residual = 0.000169631, No Iterations 4
time step continuity errors : sum local = 3.08542e-08, global = -4.94564e-10, cumulative = 9.31697e-08
ExecutionTime = 28.44 s  ClockTime = 30 s

fieldMinMax minMax write:
    min(mag(U)) = 0 in cell 36960 at location (0.000485708 0 0.05)
    max(mag(U)) = 72.8605 in cell 1727 at location (-0.000598615 1.23966e-05 0.05)

Time = 1

smoothSolver:  Solving for Ux, Initial residual = 0.000748914, Final residual = 6.58671e-05, No Iterations 6
smoothSolver:  Solving for Uy, Initial residual = 0.00216254, Final residual = 0.000144932, No Iterations 1
GAMG:  Solving for p, Initial residual = 0.00207785, Final residual = 0.000168338, No Iterations 4
time step continuity errors : sum local = 3.07301e-08, global = -4.94042e-10, cumulative = 9.26757e-08
ExecutionTime = 29.11 s  ClockTime = 31 s

fieldMinMax minMax write:
    min(mag(U)) = 0 in cell 36960 at location (0.000485708 0 0.05)
    max(mag(U)) = 72.8867 in cell 1727 at location (-0.000598615 1.23966e-05 0.05)

yPlus yPlus write:
    writing field yPlus
    patch topWall y+ : min = 0.0200623, max = 0.154111, average = 0.123274
    patch bottomWall y+ : min = 0.10514, max = 0.140503, average = 0.106474
writeCellCentres writeCellCentres write:
    writing cell-volumes field C to 1
    Writing the x component field of the cell-centres Cx to 1
    Writing the y component field of the cell-centres Cy to 1
    Writing the z component field of the cell-centres Cz to 1
wallShearStress wallShearStress write:
    writing field wallShearStress
    min/max(topWall) = (-3.75373e-10 -4.74379e-08 0), (1.25591e-09 -8.59842e-10 0)
    min/max(bottomWall) = (-49.2659 -0.920185 0), (-27.5887 8.71761e-05 0)
Time = 1.01

smoothSolver:  Solving for Ux, Initial residual = 0.00073985, Final residual = 6.50788e-05, No Iterations 6
smoothSolver:  Solving for Uy, Initial residual = 0.00214702, Final residual = 0.000142888, No Iterations 1
GAMG:  Solving for p, Initial residual = 0.00204424, Final residual = 0.000167042, No Iterations 4
time step continuity errors : sum local = 3.0605e-08, global = -4.93616e-10, cumulative = 9.21821e-08
ExecutionTime = 29.9 s  ClockTime = 33 s

fieldMinMax minMax write:
    min(mag(U)) = 0 in cell 36960 at location (0.000485708 0 0.05)
    max(mag(U)) = 72.9126 in cell 1727 at location (-0.000598615 1.23966e-05 0.05)

Time = 1.02

smoothSolver:  Solving for Ux, Initial residual = 0.00073097, Final residual = 6.43062e-05, No Iterations 6
smoothSolver:  Solving for Uy, Initial residual = 0.00213192, Final residual = 0.000140891, No Iterations 1
GAMG:  Solving for p, Initial residual = 0.00201122, Final residual = 0.000165741, No Iterations 4
time step continuity errors : sum local = 3.04789e-08, global = -4.93308e-10, cumulative = 9.16888e-08
ExecutionTime = 30.18 s  ClockTime = 33 s

fieldMinMax minMax write:
    min(mag(U)) = 0 in cell 36960 at location (0.000485708 0 0.05)
    max(mag(U)) = 72.9383 in cell 1727 at location (-0.000598615 1.23966e-05 0.05)

Time = 1.03

smoothSolver:  Solving for Ux, Initial residual = 0.000722267, Final residual = 6.35487e-05, No Iterations 6
smoothSolver:  Solving for Uy, Initial residual = 0.00211722, Final residual = 0.000138939, No Iterations 1
GAMG:  Solving for p, Initial residual = 0.00197873, Final residual = 0.000164434, No Iterations 4
time step continuity errors : sum local = 3.03517e-08, global = -4.93153e-10, cumulative = 9.11956e-08
ExecutionTime = 30.49 s  ClockTime = 33 s

fieldMinMax minMax write:
    min(mag(U)) = 0 in cell 36960 at location (0.000485708 0 0.05)
    max(mag(U)) = 72.9636 in cell 1727 at location (-0.000598615 1.23966e-05 0.05)

Time = 1.04

smoothSolver:  Solving for Ux, Initial residual = 0.000713735, Final residual = 6.28059e-05, No Iterations 6
smoothSolver:  Solving for Uy, Initial residual = 0.00210296, Final residual = 0.00013703, No Iterations 1
GAMG:  Solving for p, Initial residual = 0.00194685, Final residual = 0.000163122, No Iterations 4
time step continuity errors : sum local = 3.02234e-08, global = -4.93167e-10, cumulative = 9.07024e-08
ExecutionTime = 30.83 s  ClockTime = 33 s

fieldMinMax minMax write:
    min(mag(U)) = 0 in cell 36960 at location (0.000485708 0 0.05)
    max(mag(U)) = 72.9886 in cell 1727 at location (-0.000598615 1.23966e-05 0.05)

Time = 1.05

smoothSolver:  Solving for Ux, Initial residual = 0.000705371, Final residual = 6.20776e-05, No Iterations 6
smoothSolver:  Solving for Uy, Initial residual = 0.00208914, Final residual = 0.000135164, No Iterations 1
GAMG:  Solving for p, Initial residual = 0.00191563, Final residual = 0.000161805, No Iterations 4
time step continuity errors : sum local = 3.00941e-08, global = -4.93337e-10, cumulative = 9.02091e-08
ExecutionTime = 31.15 s  ClockTime = 34 s

fieldMinMax minMax write:
    min(mag(U)) = 0 in cell 36960 at location (0.000485708 0 0.05)
    max(mag(U)) = 73.0133 in cell 1727 at location (-0.000598615 1.23966e-05 0.05)

Time = 1.06

smoothSolver:  Solving for Ux, Initial residual = 0.00069717, Final residual = 6.13631e-05, No Iterations 6
smoothSolver:  Solving for Uy, Initial residual = 0.00207566, Final residual = 0.00013334, No Iterations 1
GAMG:  Solving for p, Initial residual = 0.00188487, Final residual = 0.000160485, No Iterations 4
time step continuity errors : sum local = 2.99642e-08, global = -4.93636e-10, cumulative = 8.97155e-08
ExecutionTime = 31.43 s  ClockTime = 34 s

fieldMinMax minMax write:
    min(mag(U)) = 0 in cell 36960 at location (0.000485708 0 0.05)
    max(mag(U)) = 73.0378 in cell 1727 at location (-0.000598615 1.23966e-05 0.05)

Time = 1.07

smoothSolver:  Solving for Ux, Initial residual = 0.000689126, Final residual = 6.06622e-05, No Iterations 6
smoothSolver:  Solving for Uy, Initial residual = 0.00206245, Final residual = 0.000131556, No Iterations 1
GAMG:  Solving for p, Initial residual = 0.0018546, Final residual = 0.000159163, No Iterations 4
time step continuity errors : sum local = 2.98339e-08, global = -4.94036e-10, cumulative = 8.92214e-08
ExecutionTime = 31.7 s  ClockTime = 34 s

fieldMinMax minMax write:
    min(mag(U)) = 0 in cell 36960 at location (0.000485708 0 0.05)
    max(mag(U)) = 73.0619 in cell 1727 at location (-0.000598615 1.23966e-05 0.05)

Time = 1.08

smoothSolver:  Solving for Ux, Initial residual = 0.000681236, Final residual = 5.99746e-05, No Iterations 6
smoothSolver:  Solving for Uy, Initial residual = 0.00204951, Final residual = 0.000129811, No Iterations 1
GAMG:  Solving for p, Initial residual = 0.00182482, Final residual = 0.00015784, No Iterations 4
time step continuity errors : sum local = 2.97035e-08, global = -4.94516e-10, cumulative = 8.87269e-08
ExecutionTime = 31.98 s  ClockTime = 35 s

fieldMinMax minMax write:
    min(mag(U)) = 0 in cell 36960 at location (0.000485708 0 0.05)
    max(mag(U)) = 73.0858 in cell 1727 at location (-0.000598615 1.23966e-05 0.05)

Time = 1.09

smoothSolver:  Solving for Ux, Initial residual = 0.000673496, Final residual = 5.92997e-05, No Iterations 6
smoothSolver:  Solving for Uy, Initial residual = 0.00203683, Final residual = 0.000128102, No Iterations 1
GAMG:  Solving for p, Initial residual = 0.00179556, Final residual = 0.000156517, No Iterations 4
time step continuity errors : sum local = 2.95729e-08, global = -4.95066e-10, cumulative = 8.82319e-08
ExecutionTime = 32.26 s  ClockTime = 35 s

fieldMinMax minMax write:
    min(mag(U)) = 0 in cell 36960 at location (0.000485708 0 0.05)
    max(mag(U)) = 73.1094 in cell 1727 at location (-0.000598615 1.23966e-05 0.05)

Time = 1.1

smoothSolver:  Solving for Ux, Initial residual = 0.000665901, Final residual = 5.86374e-05, No Iterations 6
smoothSolver:  Solving for Uy, Initial residual = 0.00202442, Final residual = 0.000126432, No Iterations 1
GAMG:  Solving for p, Initial residual = 0.00176691, Final residual = 0.000155193, No Iterations 4
time step continuity errors : sum local = 2.94422e-08, global = -4.95676e-10, cumulative = 8.77362e-08
ExecutionTime = 32.53 s  ClockTime = 35 s

fieldMinMax minMax write:
    min(mag(U)) = 0 in cell 36960 at location (0.000485708 0 0.05)
    max(mag(U)) = 73.1327 in cell 1727 at location (-0.000598615 1.23966e-05 0.05)

Time = 1.11

smoothSolver:  Solving for Ux, Initial residual = 0.000658447, Final residual = 5.79872e-05, No Iterations 6
smoothSolver:  Solving for Uy, Initial residual = 0.00201226, Final residual = 0.000124796, No Iterations 1
GAMG:  Solving for p, Initial residual = 0.00173934, Final residual = 0.00015387, No Iterations 4
time step continuity errors : sum local = 2.93115e-08, global = -4.96343e-10, cumulative = 8.72398e-08
ExecutionTime = 32.81 s  ClockTime = 36 s

fieldMinMax minMax write:
    min(mag(U)) = 0 in cell 36960 at location (0.000485708 0 0.05)
    max(mag(U)) = 73.1558 in cell 1727 at location (-0.000598615 1.23966e-05 0.05)

Time = 1.12

smoothSolver:  Solving for Ux, Initial residual = 0.000651132, Final residual = 5.73489e-05, No Iterations 6
smoothSolver:  Solving for Uy, Initial residual = 0.00200036, Final residual = 0.000123194, No Iterations 1
GAMG:  Solving for p, Initial residual = 0.00171295, Final residual = 0.000152547, No Iterations 4
time step continuity errors : sum local = 2.91809e-08, global = -4.97062e-10, cumulative = 8.67428e-08
ExecutionTime = 33.09 s  ClockTime = 36 s

fieldMinMax minMax write:
    min(mag(U)) = 0 in cell 36960 at location (0.000485708 0 0.05)
    max(mag(U)) = 73.1786 in cell 1727 at location (-0.000598615 1.23966e-05 0.05)

Time = 1.13

smoothSolver:  Solving for Ux, Initial residual = 0.000643949, Final residual = 5.6722e-05, No Iterations 6
smoothSolver:  Solving for Uy, Initial residual = 0.00198871, Final residual = 0.000121628, No Iterations 1
GAMG:  Solving for p, Initial residual = 0.00168791, Final residual = 0.000151224, No Iterations 4
time step continuity errors : sum local = 2.90504e-08, global = -4.97831e-10, cumulative = 8.62449e-08
ExecutionTime = 33.36 s  ClockTime = 36 s

fieldMinMax minMax write:
    min(mag(U)) = 0 in cell 36960 at location (0.000485708 0 0.05)
    max(mag(U)) = 73.2011 in cell 1727 at location (-0.000598615 1.23966e-05 0.05)

Time = 1.14

smoothSolver:  Solving for Ux, Initial residual = 0.000636898, Final residual = 5.61064e-05, No Iterations 6
smoothSolver:  Solving for Uy, Initial residual = 0.00197732, Final residual = 0.000120094, No Iterations 1
GAMG:  Solving for p, Initial residual = 0.00166437, Final residual = 0.000149904, No Iterations 4
time step continuity errors : sum local = 2.89202e-08, global = -4.98649e-10, cumulative = 8.57463e-08
ExecutionTime = 33.64 s  ClockTime = 36 s

fieldMinMax minMax write:
    min(mag(U)) = 0 in cell 36960 at location (0.000485708 0 0.05)
    max(mag(U)) = 73.2234 in cell 1727 at location (-0.000598615 1.23966e-05 0.05)

Time = 1.15

smoothSolver:  Solving for Ux, Initial residual = 0.000629973, Final residual = 5.55017e-05, No Iterations 6
smoothSolver:  Solving for Uy, Initial residual = 0.00196618, Final residual = 0.000118591, No Iterations 1
GAMG:  Solving for p, Initial residual = 0.00164298, Final residual = 0.000148586, No Iterations 4
time step continuity errors : sum local = 2.87903e-08, global = -4.99517e-10, cumulative = 8.52468e-08
ExecutionTime = 33.91 s  ClockTime = 37 s

fieldMinMax minMax write:
    min(mag(U)) = 0 in cell 36960 at location (0.000485708 0 0.05)
    max(mag(U)) = 73.2454 in cell 1727 at location (-0.000598615 1.23966e-05 0.05)

Time = 1.16

smoothSolver:  Solving for Ux, Initial residual = 0.000623172, Final residual = 5.49078e-05, No Iterations 6
smoothSolver:  Solving for Uy, Initial residual = 0.00195529, Final residual = 0.000117119, No Iterations 1
GAMG:  Solving for p, Initial residual = 0.00162208, Final residual = 0.000147271, No Iterations 4
time step continuity errors : sum local = 2.8661e-08, global = -5.00438e-10, cumulative = 8.47463e-08
ExecutionTime = 34.22 s  ClockTime = 37 s

fieldMinMax minMax write:
    min(mag(U)) = 0 in cell 36960 at location (0.000485708 0 0.05)
    max(mag(U)) = 73.2671 in cell 1727 at location (-0.000598615 1.23966e-05 0.05)

Time = 1.17

smoothSolver:  Solving for Ux, Initial residual = 0.000616492, Final residual = 5.43242e-05, No Iterations 6
smoothSolver:  Solving for Uy, Initial residual = 0.00194464, Final residual = 0.000115677, No Iterations 1
GAMG:  Solving for p, Initial residual = 0.00160131, Final residual = 0.00014596, No Iterations 4
time step continuity errors : sum local = 2.85323e-08, global = -5.01415e-10, cumulative = 8.42449e-08
ExecutionTime = 34.54 s  ClockTime = 37 s

fieldMinMax minMax write:
    min(mag(U)) = 0 in cell 36960 at location (0.000485708 0 0.05)
    max(mag(U)) = 73.2886 in cell 1727 at location (-0.000598615 1.23966e-05 0.05)

Time = 1.18

smoothSolver:  Solving for Ux, Initial residual = 0.000609929, Final residual = 5.37507e-05, No Iterations 6
smoothSolver:  Solving for Uy, Initial residual = 0.00193422, Final residual = 0.000114264, No Iterations 1
GAMG:  Solving for p, Initial residual = 0.00158071, Final residual = 0.000144653, No Iterations 4
time step continuity errors : sum local = 2.84043e-08, global = -5.02454e-10, cumulative = 8.37425e-08
ExecutionTime = 34.84 s  ClockTime = 38 s

fieldMinMax minMax write:
    min(mag(U)) = 0 in cell 36960 at location (0.000485708 0 0.05)
    max(mag(U)) = 73.3102 in cell 1631 at location (-0.000598615 1.15119e-05 0.05)

Time = 1.19

smoothSolver:  Solving for Ux, Initial residual = 0.00060348, Final residual = 5.31871e-05, No Iterations 6
smoothSolver:  Solving for Uy, Initial residual = 0.00192405, Final residual = 0.00011288, No Iterations 1
GAMG:  Solving for p, Initial residual = 0.00156025, Final residual = 0.000143351, No Iterations 4
time step continuity errors : sum local = 2.82772e-08, global = -5.03562e-10, cumulative = 8.32389e-08
[...]
ExecutionTime = 2182.32 s  ClockTime = 2297 s

fieldMinMax minMax write:
    min(mag(U)) = 0 in cell 36960 at location (0.000485708 0 0.05)
    max(mag(U)) = 75.4713 in cell 95 at location (-0.000598615 2.77838e-07 0.05)

Time = 59.72

smoothSolver:  Solving for Ux, Initial residual = 4.99512e-10, Final residual = 8.62332e-11, No Iterations 4
smoothSolver:  Solving for Uy, Initial residual = 4.87012e-09, Final residual = 3.70576e-10, No Iterations 1
GAMG:  Solving for p, Initial residual = 4.66322e-10, Final residual = 9.43786e-11, No Iterations 3
time step continuity errors : sum local = 8.08566e-13, global = -3.37019e-13, cumulative = -4.46033e-07
ExecutionTime = 2182.56 s  ClockTime = 2298 s

fieldMinMax minMax write:
    min(mag(U)) = 0 in cell 36960 at location (0.000485708 0 0.05)
    max(mag(U)) = 75.4713 in cell 95 at location (-0.000598615 2.77838e-07 0.05)

Time = 59.73

smoothSolver:  Solving for Ux, Initial residual = 4.9887e-10, Final residual = 8.61298e-11, No Iterations 4
smoothSolver:  Solving for Uy, Initial residual = 4.82603e-09, Final residual = 3.70167e-10, No Iterations 1
GAMG:  Solving for p, Initial residual = 4.95604e-10, Final residual = 7.05386e-11, No Iterations 4
time step continuity errors : sum local = 6.04719e-13, global = 6.95057e-14, cumulative = -4.46033e-07
ExecutionTime = 2182.82 s  ClockTime = 2298 s

fieldMinMax minMax write:
    min(mag(U)) = 0 in cell 36960 at location (0.000485708 0 0.05)
    max(mag(U)) = 75.4713 in cell 95 at location (-0.000598615 2.77838e-07 0.05)

Time = 59.74

smoothSolver:  Solving for Ux, Initial residual = 4.98378e-10, Final residual = 8.60265e-11, No Iterations 4
smoothSolver:  Solving for Uy, Initial residual = 4.8559e-09, Final residual = 3.69966e-10, No Iterations 1
GAMG:  Solving for p, Initial residual = 4.65203e-10, Final residual = 9.40824e-11, No Iterations 3
time step continuity errors : sum local = 8.06157e-13, global = -3.3541e-13, cumulative = -4.46033e-07
ExecutionTime = 2183.06 s  ClockTime = 2298 s

fieldMinMax minMax write:
    min(mag(U)) = 0 in cell 36960 at location (0.000485708 0 0.05)
    max(mag(U)) = 75.4713 in cell 95 at location (-0.000598615 2.77838e-07 0.05)

Time = 59.75

smoothSolver:  Solving for Ux, Initial residual = 4.97738e-10, Final residual = 8.59234e-11, No Iterations 4
smoothSolver:  Solving for Uy, Initial residual = 4.81204e-09, Final residual = 3.69557e-10, No Iterations 1
GAMG:  Solving for p, Initial residual = 4.94407e-10, Final residual = 7.03163e-11, No Iterations 4
time step continuity errors : sum local = 6.02749e-13, global = 6.92132e-14, cumulative = -4.46033e-07
ExecutionTime = 2183.31 s  ClockTime = 2298 s

fieldMinMax minMax write:
    min(mag(U)) = 0 in cell 36960 at location (0.000485708 0 0.05)
    max(mag(U)) = 75.4713 in cell 95 at location (-0.000598615 2.77838e-07 0.05)

Time = 59.76

smoothSolver:  Solving for Ux, Initial residual = 4.97249e-10, Final residual = 8.58204e-11, No Iterations 4
smoothSolver:  Solving for Uy, Initial residual = 4.84178e-09, Final residual = 3.69357e-10, No Iterations 1
GAMG:  Solving for p, Initial residual = 4.64094e-10, Final residual = 9.38036e-11, No Iterations 3
time step continuity errors : sum local = 8.03601e-13, global = -3.3384e-13, cumulative = -4.46033e-07
ExecutionTime = 2183.56 s  ClockTime = 2299 s

fieldMinMax minMax write:
    min(mag(U)) = 0 in cell 36960 at location (0.000485708 0 0.05)
    max(mag(U)) = 75.4713 in cell 95 at location (-0.000598615 2.77838e-07 0.05)

Time = 59.77

smoothSolver:  Solving for Ux, Initial residual = 4.96611e-10, Final residual = 8.57177e-11, No Iterations 4
smoothSolver:  Solving for Uy, Initial residual = 4.79813e-09, Final residual = 3.6895e-10, No Iterations 1
GAMG:  Solving for p, Initial residual = 4.93253e-10, Final residual = 7.00797e-11, No Iterations 4
time step continuity errors : sum local = 6.00745e-13, global = 6.90113e-14, cumulative = -4.46033e-07
ExecutionTime = 2183.81 s  ClockTime = 2299 s

fieldMinMax minMax write:
    min(mag(U)) = 0 in cell 36960 at location (0.000485708 0 0.05)
    max(mag(U)) = 75.4713 in cell 95 at location (-0.000598615 2.77838e-07 0.05)

Time = 59.78

smoothSolver:  Solving for Ux, Initial residual = 4.96122e-10, Final residual = 8.5615e-11, No Iterations 4
smoothSolver:  Solving for Uy, Initial residual = 4.82772e-09, Final residual = 3.6875e-10, No Iterations 1
GAMG:  Solving for p, Initial residual = 4.62987e-10, Final residual = 9.35257e-11, No Iterations 3
time step continuity errors : sum local = 8.01376e-13, global = -3.32435e-13, cumulative = -4.46034e-07
ExecutionTime = 2184.04 s  ClockTime = 2299 s

fieldMinMax minMax write:
    min(mag(U)) = 0 in cell 36960 at location (0.000485708 0 0.05)
    max(mag(U)) = 75.4713 in cell 95 at location (-0.000598615 2.77838e-07 0.05)

Time = 59.79

smoothSolver:  Solving for Ux, Initial residual = 4.95487e-10, Final residual = 8.55126e-11, No Iterations 4
smoothSolver:  Solving for Uy, Initial residual = 4.78409e-09, Final residual = 3.68344e-10, No Iterations 1
GAMG:  Solving for p, Initial residual = 4.92075e-10, Final residual = 6.98553e-11, No Iterations 4
time step continuity errors : sum local = 5.98894e-13, global = 6.86516e-14, cumulative = -4.46034e-07
ExecutionTime = 2184.3 s  ClockTime = 2299 s

fieldMinMax minMax write:
    min(mag(U)) = 0 in cell 36960 at location (0.000485708 0 0.05)
    max(mag(U)) = 75.4713 in cell 95 at location (-0.000598615 2.77838e-07 0.05)

Time = 59.8

smoothSolver:  Solving for Ux, Initial residual = 4.95e-10, Final residual = 8.54103e-11, No Iterations 4
smoothSolver:  Solving for Uy, Initial residual = 4.81369e-09, Final residual = 3.68144e-10, No Iterations 1
GAMG:  Solving for p, Initial residual = 4.61831e-10, Final residual = 9.32356e-11, No Iterations 3
time step continuity errors : sum local = 7.9887e-13, global = -3.3097e-13, cumulative = -4.46034e-07
ExecutionTime = 2184.54 s  ClockTime = 2300 s

fieldMinMax minMax write:
    min(mag(U)) = 0 in cell 36960 at location (0.000485708 0 0.05)
    max(mag(U)) = 75.4713 in cell 95 at location (-0.000598615 2.77838e-07 0.05)

Time = 59.81

smoothSolver:  Solving for Ux, Initial residual = 4.94366e-10, Final residual = 8.53081e-11, No Iterations 4
smoothSolver:  Solving for Uy, Initial residual = 4.77015e-09, Final residual = 3.67738e-10, No Iterations 1
GAMG:  Solving for p, Initial residual = 4.90868e-10, Final residual = 6.94392e-11, No Iterations 4
time step continuity errors : sum local = 5.95254e-13, global = 6.7803e-14, cumulative = -4.46034e-07
ExecutionTime = 2184.8 s  ClockTime = 2300 s

fieldMinMax minMax write:
    min(mag(U)) = 0 in cell 36960 at location (0.000485708 0 0.05)
    max(mag(U)) = 75.4713 in cell 95 at location (-0.000598615 2.77838e-07 0.05)

Time = 59.82

smoothSolver:  Solving for Ux, Initial residual = 4.93882e-10, Final residual = 8.52061e-11, No Iterations 4
smoothSolver:  Solving for Uy, Initial residual = 4.80001e-09, Final residual = 3.6754e-10, No Iterations 1
GAMG:  Solving for p, Initial residual = 4.60542e-10, Final residual = 9.2857e-11, No Iterations 3
time step continuity errors : sum local = 7.9561e-13, global = -3.28813e-13, cumulative = -4.46034e-07
ExecutionTime = 2185.04 s  ClockTime = 2300 s

fieldMinMax minMax write:
    min(mag(U)) = 0 in cell 36960 at location (0.000485708 0 0.05)
    max(mag(U)) = 75.4713 in cell 95 at location (-0.000598615 2.77838e-07 0.05)

Time = 59.83

smoothSolver:  Solving for Ux, Initial residual = 4.93248e-10, Final residual = 8.51043e-11, No Iterations 4
smoothSolver:  Solving for Uy, Initial residual = 4.75635e-09, Final residual = 3.67135e-10, No Iterations 1
GAMG:  Solving for p, Initial residual = 4.89626e-10, Final residual = 6.9191e-11, No Iterations 4
time step continuity errors : sum local = 5.93108e-13, global = 6.76458e-14, cumulative = -4.46034e-07
ExecutionTime = 2185.3 s  ClockTime = 2300 s

fieldMinMax minMax write:
    min(mag(U)) = 0 in cell 36960 at location (0.000485708 0 0.05)
    max(mag(U)) = 75.4713 in cell 95 at location (-0.000598615 2.77838e-07 0.05)

Time = 59.84

smoothSolver:  Solving for Ux, Initial residual = 4.92766e-10, Final residual = 8.50026e-11, No Iterations 4
smoothSolver:  Solving for Uy, Initial residual = 4.78582e-09, Final residual = 3.66937e-10, No Iterations 1
GAMG:  Solving for p, Initial residual = 4.59453e-10, Final residual = 9.26061e-11, No Iterations 3
time step continuity errors : sum local = 7.93393e-13, global = -3.2745e-13, cumulative = -4.46035e-07
ExecutionTime = 2185.54 s  ClockTime = 2301 s

fieldMinMax minMax write:
    min(mag(U)) = 0 in cell 36960 at location (0.000485708 0 0.05)
    max(mag(U)) = 75.4713 in cell 95 at location (-0.000598615 2.77838e-07 0.05)

Time = 59.85

smoothSolver:  Solving for Ux, Initial residual = 4.92134e-10, Final residual = 8.49012e-11, No Iterations 4
smoothSolver:  Solving for Uy, Initial residual = 4.74243e-09, Final residual = 3.66533e-10, No Iterations 1
GAMG:  Solving for p, Initial residual = 4.88509e-10, Final residual = 6.89941e-11, No Iterations 4
time step continuity errors : sum local = 5.91426e-13, global = 6.74514e-14, cumulative = -4.46034e-07
ExecutionTime = 2185.81 s  ClockTime = 2301 s

fieldMinMax minMax write:
    min(mag(U)) = 0 in cell 36960 at location (0.000485708 0 0.05)
    max(mag(U)) = 75.4713 in cell 95 at location (-0.000598615 2.77838e-07 0.05)

Time = 59.86

smoothSolver:  Solving for Ux, Initial residual = 4.91654e-10, Final residual = 8.47998e-11, No Iterations 4
smoothSolver:  Solving for Uy, Initial residual = 4.77186e-09, Final residual = 3.66335e-10, No Iterations 1
GAMG:  Solving for p, Initial residual = 4.58376e-10, Final residual = 9.23311e-11, No Iterations 3
time step continuity errors : sum local = 7.9111e-13, global = -3.26006e-13, cumulative = -4.46035e-07
ExecutionTime = 2186.05 s  ClockTime = 2301 s

fieldMinMax minMax write:
    min(mag(U)) = 0 in cell 36960 at location (0.000485708 0 0.05)
    max(mag(U)) = 75.4713 in cell 95 at location (-0.000598615 2.77838e-07 0.05)

Time = 59.87

smoothSolver:  Solving for Ux, Initial residual = 4.91024e-10, Final residual = 8.46986e-11, No Iterations 4
smoothSolver:  Solving for Uy, Initial residual = 4.72867e-09, Final residual = 3.65932e-10, No Iterations 1
GAMG:  Solving for p, Initial residual = 4.87348e-10, Final residual = 6.87603e-11, No Iterations 4
time step continuity errors : sum local = 5.89508e-13, global = 6.72275e-14, cumulative = -4.46035e-07
ExecutionTime = 2186.31 s  ClockTime = 2301 s

fieldMinMax minMax write:
    min(mag(U)) = 0 in cell 36960 at location (0.000485708 0 0.05)
    max(mag(U)) = 75.4713 in cell 95 at location (-0.000598615 2.77838e-07 0.05)

Time = 59.88

smoothSolver:  Solving for Ux, Initial residual = 4.90545e-10, Final residual = 8.45975e-11, No Iterations 4
smoothSolver:  Solving for Uy, Initial residual = 4.75798e-09, Final residual = 3.65735e-10, No Iterations 1
GAMG:  Solving for p, Initial residual = 4.57254e-10, Final residual = 9.2046e-11, No Iterations 3
time step continuity errors : sum local = 7.88587e-13, global = -3.24312e-13, cumulative = -4.46035e-07
ExecutionTime = 2186.54 s  ClockTime = 2302 s

fieldMinMax minMax write:
    min(mag(U)) = 0 in cell 36960 at location (0.000485708 0 0.05)
    max(mag(U)) = 75.4713 in cell 95 at location (-0.000598615 2.77838e-07 0.05)

Time = 59.89

smoothSolver:  Solving for Ux, Initial residual = 4.89917e-10, Final residual = 8.44967e-11, No Iterations 4
smoothSolver:  Solving for Uy, Initial residual = 4.71495e-09, Final residual = 3.65333e-10, No Iterations 1
GAMG:  Solving for p, Initial residual = 4.86189e-10, Final residual = 6.8541e-11, No Iterations 4
time step continuity errors : sum local = 5.877e-13, global = 6.69782e-14, cumulative = -4.46035e-07
ExecutionTime = 2186.8 s  ClockTime = 2302 s

fieldMinMax minMax write:
    min(mag(U)) = 0 in cell 36960 at location (0.000485708 0 0.05)
    max(mag(U)) = 75.4713 in cell 95 at location (-0.000598615 2.77838e-07 0.05)

Time = 59.9

smoothSolver:  Solving for Ux, Initial residual = 4.89439e-10, Final residual = 8.43959e-11, No Iterations 4
smoothSolver:  Solving for Uy, Initial residual = 4.74413e-09, Final residual = 3.65136e-10, No Iterations 1
GAMG:  Solving for p, Initial residual = 4.56179e-10, Final residual = 9.17769e-11, No Iterations 3
time step continuity errors : sum local = 7.86328e-13, global = -3.23058e-13, cumulative = -4.46035e-07
ExecutionTime = 2187.03 s  ClockTime = 2302 s

fieldMinMax minMax write:
    min(mag(U)) = 0 in cell 36960 at location (0.000485708 0 0.05)
    max(mag(U)) = 75.4713 in cell 95 at location (-0.000598615 2.77838e-07 0.05)

Time = 59.91

smoothSolver:  Solving for Ux, Initial residual = 4.88813e-10, Final residual = 8.42954e-11, No Iterations 4
smoothSolver:  Solving for Uy, Initial residual = 4.70124e-09, Final residual = 3.64734e-10, No Iterations 1
GAMG:  Solving for p, Initial residual = 4.85034e-10, Final residual = 6.83329e-11, No Iterations 4
time step continuity errors : sum local = 5.85807e-13, global = 6.67101e-14, cumulative = -4.46035e-07
ExecutionTime = 2187.29 s  ClockTime = 2302 s

fieldMinMax minMax write:
    min(mag(U)) = 0 in cell 36960 at location (0.000485708 0 0.05)
    max(mag(U)) = 75.4713 in cell 95 at location (-0.000598615 2.77838e-07 0.05)

Time = 59.92

smoothSolver:  Solving for Ux, Initial residual = 4.88337e-10, Final residual = 8.4195e-11, No Iterations 4
smoothSolver:  Solving for Uy, Initial residual = 4.73033e-09, Final residual = 3.64538e-10, No Iterations 1
GAMG:  Solving for p, Initial residual = 4.55089e-10, Final residual = 9.14987e-11, No Iterations 3
time step continuity errors : sum local = 7.84068e-13, global = -3.21451e-13, cumulative = -4.46036e-07
ExecutionTime = 2187.53 s  ClockTime = 2303 s

fieldMinMax minMax write:
    min(mag(U)) = 0 in cell 36960 at location (0.000485708 0 0.05)
    max(mag(U)) = 75.4713 in cell 95 at location (-0.000598615 2.77838e-07 0.05)

Time = 59.93

smoothSolver:  Solving for Ux, Initial residual = 4.87714e-10, Final residual = 8.40948e-11, No Iterations 4
smoothSolver:  Solving for Uy, Initial residual = 4.68753e-09, Final residual = 3.64138e-10, No Iterations 1
GAMG:  Solving for p, Initial residual = 4.83889e-10, Final residual = 6.81143e-11, No Iterations 4
time step continuity errors : sum local = 5.83873e-13, global = 6.64383e-14, cumulative = -4.46035e-07
ExecutionTime = 2187.79 s  ClockTime = 2303 s

fieldMinMax minMax write:
    min(mag(U)) = 0 in cell 36960 at location (0.000485708 0 0.05)
    max(mag(U)) = 75.4713 in cell 95 at location (-0.000598615 2.77838e-07 0.05)

Time = 59.94

smoothSolver:  Solving for Ux, Initial residual = 4.87239e-10, Final residual = 8.39947e-11, No Iterations 4
smoothSolver:  Solving for Uy, Initial residual = 4.71666e-09, Final residual = 3.63942e-10, No Iterations 1
GAMG:  Solving for p, Initial residual = 4.53952e-10, Final residual = 9.12094e-11, No Iterations 3
time step continuity errors : sum local = 7.81668e-13, global = -3.19994e-13, cumulative = -4.46036e-07
ExecutionTime = 2188.03 s  ClockTime = 2303 s

fieldMinMax minMax write:
    min(mag(U)) = 0 in cell 36960 at location (0.000485708 0 0.05)
    max(mag(U)) = 75.4713 in cell 95 at location (-0.000598615 2.77838e-07 0.05)

Time = 59.95

smoothSolver:  Solving for Ux, Initial residual = 4.86617e-10, Final residual = 8.38947e-11, No Iterations 4
smoothSolver:  Solving for Uy, Initial residual = 4.674e-09, Final residual = 3.63542e-10, No Iterations 1
GAMG:  Solving for p, Initial residual = 4.82759e-10, Final residual = 6.79068e-11, No Iterations 4
time step continuity errors : sum local = 5.82222e-13, global = 6.63855e-14, cumulative = -4.46036e-07
ExecutionTime = 2188.28 s  ClockTime = 2303 s

fieldMinMax minMax write:
    min(mag(U)) = 0 in cell 36960 at location (0.000485708 0 0.05)
    max(mag(U)) = 75.4712 in cell 95 at location (-0.000598615 2.77838e-07 0.05)

Time = 59.96

smoothSolver:  Solving for Ux, Initial residual = 4.86144e-10, Final residual = 8.37949e-11, No Iterations 4
smoothSolver:  Solving for Uy, Initial residual = 4.70284e-09, Final residual = 3.63347e-10, No Iterations 1
GAMG:  Solving for p, Initial residual = 4.52925e-10, Final residual = 9.09303e-11, No Iterations 3
time step continuity errors : sum local = 7.79217e-13, global = -3.18292e-13, cumulative = -4.46036e-07
ExecutionTime = 2188.52 s  ClockTime = 2304 s

fieldMinMax minMax write:
    min(mag(U)) = 0 in cell 36960 at location (0.000485708 0 0.05)
    max(mag(U)) = 75.4712 in cell 95 at location (-0.000598615 2.77838e-07 0.05)

Time = 59.97

smoothSolver:  Solving for Ux, Initial residual = 4.85523e-10, Final residual = 8.36953e-11, No Iterations 4
smoothSolver:  Solving for Uy, Initial residual = 4.66047e-09, Final residual = 3.62948e-10, No Iterations 1
GAMG:  Solving for p, Initial residual = 4.81596e-10, Final residual = 6.76779e-11, No Iterations 4
time step continuity errors : sum local = 5.80153e-13, global = 6.60181e-14, cumulative = -4.46036e-07
ExecutionTime = 2188.78 s  ClockTime = 2304 s

fieldMinMax minMax write:
    min(mag(U)) = 0 in cell 36960 at location (0.000485708 0 0.05)
    max(mag(U)) = 75.4712 in cell 95 at location (-0.000598615 2.77838e-07 0.05)

Time = 59.98

smoothSolver:  Solving for Ux, Initial residual = 4.85052e-10, Final residual = 8.35959e-11, No Iterations 4
smoothSolver:  Solving for Uy, Initial residual = 4.68925e-09, Final residual = 3.62754e-10, No Iterations 1
GAMG:  Solving for p, Initial residual = 4.51849e-10, Final residual = 9.06675e-11, No Iterations 3
time step continuity errors : sum local = 7.77007e-13, global = -3.16894e-13, cumulative = -4.46036e-07
ExecutionTime = 2189.02 s  ClockTime = 2304 s

fieldMinMax minMax write:
    min(mag(U)) = 0 in cell 36960 at location (0.000485708 0 0.05)
    max(mag(U)) = 75.4712 in cell 95 at location (-0.000598615 2.77838e-07 0.05)

Time = 59.99

smoothSolver:  Solving for Ux, Initial residual = 4.84434e-10, Final residual = 8.34966e-11, No Iterations 4
smoothSolver:  Solving for Uy, Initial residual = 4.64689e-09, Final residual = 3.62355e-10, No Iterations 1
GAMG:  Solving for p, Initial residual = 4.80475e-10, Final residual = 6.74812e-11, No Iterations 4
time step continuity errors : sum local = 5.78563e-13, global = 6.59636e-14, cumulative = -4.46036e-07
ExecutionTime = 2189.27 s  ClockTime = 2304 s

fieldMinMax minMax write:
    min(mag(U)) = 0 in cell 36960 at location (0.000485708 0 0.05)
    max(mag(U)) = 75.4712 in cell 95 at location (-0.000598615 2.77838e-07 0.05)

Time = 60

smoothSolver:  Solving for Ux, Initial residual = 4.83964e-10, Final residual = 8.33974e-11, No Iterations 4
smoothSolver:  Solving for Uy, Initial residual = 4.67563e-09, Final residual = 3.62161e-10, No Iterations 1
GAMG:  Solving for p, Initial residual = 4.50797e-10, Final residual = 9.03985e-11, No Iterations 3
time step continuity errors : sum local = 7.74613e-13, global = -3.15488e-13, cumulative = -4.46037e-07
ExecutionTime = 2189.87 s  ClockTime = 2305 s

fieldMinMax minMax write:
    min(mag(U)) = 0 in cell 36960 at location (0.000485708 0 0.05)
    max(mag(U)) = 75.4712 in cell 95 at location (-0.000598615 2.77838e-07 0.05)

yPlus yPlus write:
    writing field yPlus
    patch topWall y+ : min = 0.0708353, max = 0.69462, average = 0.606303
    patch bottomWall y+ : min = 0.0142584, max = 0.139435, average = 0.0251507
writeCellCentres writeCellCentres write:
    writing cell-volumes field C to 60
    Writing the x component field of the cell-centres Cx to 60
    Writing the y component field of the cell-centres Cy to 60
    Writing the z component field of the cell-centres Cz to 60
wallShearStress wallShearStress write:
    writing field wallShearStress
    min/max(topWall) = (-2.59379e-09 -9.63484e-07 0), (1.4873e-08 -1.04693e-08 0)
    min/max(bottomWall) = (-48.5197 -0.963927 0), (-0.507383 -1.4031e-08 0)
End

