/*---------------------------------------------------------------------------*\
| =========                 |                                                 |
| \\      /  F ield         | OpenFOAM: The Open Source CFD Toolbox           |
|  \\    /   O peration     | Version:  v2012                                 |
|   \\  /    A nd           | Website:  www.openfoam.com                      |
|    \\/     M anipulation  |                                                 |
\*---------------------------------------------------------------------------*/
Build  : _7bdb509494-20201222 OPENFOAM=2012
Arch   : "LSB;label=32;scalar=64"
Exec   : simpleFoam
Date   : Mar 22 2025
Time   : 23:29:01
Host   : Taupok
PID    : 3123
I/O    : uncollated
Case   : /mnt/c/Users/lowjo/OneDrive/Desktop/ASTAR/DASH/testLaminarFlatPlate
nProcs : 1
trapFpe: Floating point exception trapping enabled (FOAM_SIGFPE).
fileModificationChecking : Monitoring run-time modified files using timeStampMaster (fileModificationSkew 5, maxFileModificationPolls 20)
allowSystemOperations : Allowing user-supplied system call operations

// * * * * * * * * * * * * * * * * * * * * * * * * * * * * * * * * * * * * * //
Create time

Create mesh for time = 0


SIMPLE: no convergence criteria found. Calculations will run for 60 steps.

Reading field p

Reading field U

Reading/calculating face flux field phi

Selecting incompressible transport model Newtonian
Selecting turbulence model type laminar
Selecting laminar stress model Stokes
No MRF models present

No finite volume options present

Starting time loop

wallShearStress wallShearStress:
    processing all wall patches

Time = 0.01

smoothSolver:  Solving for Ux, Initial residual = 1, Final residual = 0.0433266, No Iterations 2
smoothSolver:  Solving for Uy, Initial residual = 1, Final residual = 0.0614955, No Iterations 1
GAMG:  Solving for p, Initial residual = 1, Final residual = 0.0839622, No Iterations 15
time step continuity errors : sum local = 1.78948e-06, global = 6.92965e-07, cumulative = 6.92965e-07
ExecutionTime = 2.23 s  ClockTime = 3 s

fieldMinMax minMax write:
    min(mag(U)) = 0 in cell 36960 at location (0.000485708 0 0.05)
    max(mag(U)) = 69.4817 in cell 39660 at location (0.00635563 0.000334092 0.05)

Time = 0.02

smoothSolver:  Solving for Ux, Initial residual = 0.0286308, Final residual = 0.00236465, No Iterations 2
smoothSolver:  Solving for Uy, Initial residual = 0.280727, Final residual = 0.0031856, No Iterations 1
GAMG:  Solving for p, Initial residual = 0.00165783, Final residual = 9.91219e-05, No Iterations 10
time step continuity errors : sum local = 2.24948e-06, global = 3.51001e-07, cumulative = 1.04397e-06
ExecutionTime = 2.8 s  ClockTime = 4 s

fieldMinMax minMax write:
    min(mag(U)) = 0 in cell 36960 at location (0.000485708 0 0.05)
    max(mag(U)) = 70.6475 in cell 95 at location (-0.000598615 2.4654e-05 0.05)

Time = 0.03

smoothSolver:  Solving for Ux, Initial residual = 0.0108032, Final residual = 0.000700212, No Iterations 3
smoothSolver:  Solving for Uy, Initial residual = 0.122458, Final residual = 0.00157642, No Iterations 1
GAMG:  Solving for p, Initial residual = 0.0019951, Final residual = 0.00016796, No Iterations 6
time step continuity errors : sum local = 2.58948e-06, global = 7.93557e-07, cumulative = 1.83752e-06
ExecutionTime = 3.24 s  ClockTime = 4 s

fieldMinMax minMax write:
    min(mag(U)) = 0 in cell 36960 at location (0.000485708 0 0.05)
    max(mag(U)) = 71.3124 in cell 95 at location (-0.000598615 2.4654e-05 0.05)

Time = 0.04

smoothSolver:  Solving for Ux, Initial residual = 0.00613285, Final residual = 0.00049618, No Iterations 3
smoothSolver:  Solving for Uy, Initial residual = 0.0777572, Final residual = 0.00100801, No Iterations 1
GAMG:  Solving for p, Initial residual = 0.00208091, Final residual = 0.000152557, No Iterations 6
time step continuity errors : sum local = 1.90994e-06, global = 7.5726e-07, cumulative = 2.59478e-06
ExecutionTime = 3.68 s  ClockTime = 5 s

fieldMinMax minMax write:
    min(mag(U)) = 0 in cell 36960 at location (0.000485708 0 0.05)
    max(mag(U)) = 71.4371 in cell 95 at location (-0.000598615 2.4654e-05 0.05)

Time = 0.05

smoothSolver:  Solving for Ux, Initial residual = 0.00412523, Final residual = 0.00038496, No Iterations 3
smoothSolver:  Solving for Uy, Initial residual = 0.0546879, Final residual = 0.00069291, No Iterations 1
GAMG:  Solving for p, Initial residual = 0.00232122, Final residual = 0.000142494, No Iterations 6
time step continuity errors : sum local = 1.4468e-06, global = 5.3721e-07, cumulative = 3.13199e-06
ExecutionTime = 4.11 s  ClockTime = 5 s

fieldMinMax minMax write:
    min(mag(U)) = 0 in cell 36960 at location (0.000485708 0 0.05)
    max(mag(U)) = 71.3874 in cell 95 at location (-0.000598615 2.4654e-05 0.05)

Time = 0.06

smoothSolver:  Solving for Ux, Initial residual = 0.00315339, Final residual = 0.000314153, No Iterations 3
smoothSolver:  Solving for Uy, Initial residual = 0.0435359, Final residual = 0.000538575, No Iterations 1
GAMG:  Solving for p, Initial residual = 0.00240135, Final residual = 0.000185847, No Iterations 5
time step continuity errors : sum local = 1.70816e-06, global = -2.86046e-07, cumulative = 2.84595e-06
ExecutionTime = 4.53 s  ClockTime = 5 s

fieldMinMax minMax write:
    min(mag(U)) = 0 in cell 36960 at location (0.000485708 0 0.05)
    max(mag(U)) = 71.3874 in cell 37860 at location (0.00243313 0.000124751 0.05)

Time = 0.07

smoothSolver:  Solving for Ux, Initial residual = 0.00253135, Final residual = 0.000151929, No Iterations 4
smoothSolver:  Solving for Uy, Initial residual = 0.0363485, Final residual = 0.000451947, No Iterations 1
GAMG:  Solving for p, Initial residual = 0.00249808, Final residual = 0.000165861, No Iterations 3
time step continuity errors : sum local = 1.39498e-06, global = 1.3627e-07, cumulative = 2.98222e-06
ExecutionTime = 4.87 s  ClockTime = 6 s

fieldMinMax minMax write:
    min(mag(U)) = 0 in cell 36960 at location (0.000485708 0 0.05)
    max(mag(U)) = 71.4354 in cell 37860 at location (0.00243313 0.000124751 0.05)

Time = 0.08

smoothSolver:  Solving for Ux, Initial residual = 0.00214515, Final residual = 0.000130671, No Iterations 4
smoothSolver:  Solving for Uy, Initial residual = 0.0325827, Final residual = 0.000406738, No Iterations 1
GAMG:  Solving for p, Initial residual = 0.00239755, Final residual = 0.000144424, No Iterations 4
time step continuity errors : sum local = 1.21164e-06, global = 2.12677e-07, cumulative = 3.1949e-06
ExecutionTime = 5.25 s  ClockTime = 6 s

fieldMinMax minMax write:
    min(mag(U)) = 0 in cell 36960 at location (0.000485708 0 0.05)
    max(mag(U)) = 71.468 in cell 37860 at location (0.00243313 0.000124751 0.05)

Time = 0.09

smoothSolver:  Solving for Ux, Initial residual = 0.00181973, Final residual = 0.000114445, No Iterations 4
smoothSolver:  Solving for Uy, Initial residual = 0.0287745, Final residual = 0.00035215, No Iterations 1
GAMG:  Solving for p, Initial residual = 0.00228484, Final residual = 0.000179767, No Iterations 4
time step continuity errors : sum local = 1.44161e-06, global = 6.82245e-07, cumulative = 3.87714e-06
ExecutionTime = 5.58 s  ClockTime = 7 s

fieldMinMax minMax write:
    min(mag(U)) = 0 in cell 36960 at location (0.000485708 0 0.05)
    max(mag(U)) = 71.4888 in cell 37860 at location (0.00243313 0.000124751 0.05)

Time = 0.1

smoothSolver:  Solving for Ux, Initial residual = 0.0015821, Final residual = 0.000101642, No Iterations 4
smoothSolver:  Solving for Uy, Initial residual = 0.0256305, Final residual = 0.000309621, No Iterations 1
GAMG:  Solving for p, Initial residual = 0.00222674, Final residual = 0.000153014, No Iterations 4
time step continuity errors : sum local = 1.18754e-06, global = 4.80235e-07, cumulative = 4.35738e-06
ExecutionTime = 5.89 s  ClockTime = 7 s

fieldMinMax minMax write:
    min(mag(U)) = 0 in cell 36960 at location (0.000485708 0 0.05)
    max(mag(U)) = 71.4986 in cell 37860 at location (0.00243313 0.000124751 0.05)

Time = 0.11

smoothSolver:  Solving for Ux, Initial residual = 0.00139539, Final residual = 9.12849e-05, No Iterations 4
smoothSolver:  Solving for Uy, Initial residual = 0.0229836, Final residual = 0.000271198, No Iterations 1
GAMG:  Solving for p, Initial residual = 0.00210854, Final residual = 0.000151836, No Iterations 4
time step continuity errors : sum local = 1.13903e-06, global = 5.04272e-07, cumulative = 4.86165e-06
ExecutionTime = 6.22 s  ClockTime = 7 s

fieldMinMax minMax write:
    min(mag(U)) = 0 in cell 36960 at location (0.000485708 0 0.05)
    max(mag(U)) = 71.5009 in cell 37860 at location (0.00243313 0.000124751 0.05)

Time = 0.12

smoothSolver:  Solving for Ux, Initial residual = 0.00124056, Final residual = 8.27315e-05, No Iterations 4
smoothSolver:  Solving for Uy, Initial residual = 0.0206884, Final residual = 0.000238408, No Iterations 1
GAMG:  Solving for p, Initial residual = 0.00202901, Final residual = 0.0001404, No Iterations 4
time step continuity errors : sum local = 1.01381e-06, global = 4.97618e-07, cumulative = 5.35927e-06
ExecutionTime = 6.55 s  ClockTime = 8 s

fieldMinMax minMax write:
    min(mag(U)) = 0 in cell 36960 at location (0.000485708 0 0.05)
    max(mag(U)) = 71.4996 in cell 37860 at location (0.00243313 0.000124751 0.05)

Time = 0.13

smoothSolver:  Solving for Ux, Initial residual = 0.0011156, Final residual = 7.55465e-05, No Iterations 4
smoothSolver:  Solving for Uy, Initial residual = 0.0188945, Final residual = 0.000211459, No Iterations 1
GAMG:  Solving for p, Initial residual = 0.00194223, Final residual = 0.000168111, No Iterations 3
time step continuity errors : sum local = 1.17771e-06, global = 1.51439e-08, cumulative = 5.37441e-06
ExecutionTime = 6.85 s  ClockTime = 8 s

fieldMinMax minMax write:
    min(mag(U)) = 0 in cell 36960 at location (0.000485708 0 0.05)
    max(mag(U)) = 71.497 in cell 37860 at location (0.00243313 0.000124751 0.05)

Time = 0.14

smoothSolver:  Solving for Ux, Initial residual = 0.00101931, Final residual = 6.94246e-05, No Iterations 4
smoothSolver:  Solving for Uy, Initial residual = 0.0175601, Final residual = 0.000191423, No Iterations 1
GAMG:  Solving for p, Initial residual = 0.00186137, Final residual = 0.000132406, No Iterations 4
time step continuity errors : sum local = 9.14748e-07, global = 3.95358e-07, cumulative = 5.76977e-06
ExecutionTime = 7.19 s  ClockTime = 8 s

fieldMinMax minMax write:
    min(mag(U)) = 0 in cell 36960 at location (0.000485708 0 0.05)
    max(mag(U)) = 71.4934 in cell 37860 at location (0.00243313 0.000124751 0.05)

Time = 0.15

smoothSolver:  Solving for Ux, Initial residual = 0.000927602, Final residual = 6.41449e-05, No Iterations 4
smoothSolver:  Solving for Uy, Initial residual = 0.0160589, Final residual = 0.000172938, No Iterations 1
GAMG:  Solving for p, Initial residual = 0.00175349, Final residual = 0.000134713, No Iterations 3
time step continuity errors : sum local = 9.01344e-07, global = 2.78027e-08, cumulative = 5.79757e-06
ExecutionTime = 7.45 s  ClockTime = 8 s

fieldMinMax minMax write:
    min(mag(U)) = 0 in cell 36960 at location (0.000485708 0 0.05)
    max(mag(U)) = 71.4905 in cell 37860 at location (0.00243313 0.000124751 0.05)

Time = 0.16

smoothSolver:  Solving for Ux, Initial residual = 0.000858234, Final residual = 5.95433e-05, No Iterations 4
smoothSolver:  Solving for Uy, Initial residual = 0.0151302, Final residual = 0.000159288, No Iterations 1
GAMG:  Solving for p, Initial residual = 0.00165224, Final residual = 0.00010377, No Iterations 4
time step continuity errors : sum local = 6.89076e-07, global = 2.70894e-07, cumulative = 6.06846e-06
ExecutionTime = 7.73 s  ClockTime = 9 s

fieldMinMax minMax write:
    min(mag(U)) = 0 in cell 36960 at location (0.000485708 0 0.05)
    max(mag(U)) = 71.4876 in cell 37860 at location (0.00243313 0.000124751 0.05)

Time = 0.17

smoothSolver:  Solving for Ux, Initial residual = 0.000792796, Final residual = 5.54964e-05, No Iterations 4
smoothSolver:  Solving for Uy, Initial residual = 0.0139932, Final residual = 0.000145683, No Iterations 1
GAMG:  Solving for p, Initial residual = 0.00153713, Final residual = 0.00011907, No Iterations 3
time step continuity errors : sum local = 7.72967e-07, global = -3.62503e-09, cumulative = 6.06484e-06
ExecutionTime = 8 s  ClockTime = 9 s

fieldMinMax minMax write:
    min(mag(U)) = 0 in cell 36960 at location (0.000485708 0 0.05)
    max(mag(U)) = 71.4854 in cell 37860 at location (0.00243313 0.000124751 0.05)

Time = 0.18

smoothSolver:  Solving for Ux, Initial residual = 0.000739148, Final residual = 5.19083e-05, No Iterations 4
smoothSolver:  Solving for Uy, Initial residual = 0.0132684, Final residual = 0.000135294, No Iterations 1
GAMG:  Solving for p, Initial residual = 0.00146812, Final residual = 0.000136187, No Iterations 3
time step continuity errors : sum local = 8.77656e-07, global = 3.06174e-08, cumulative = 6.09546e-06
ExecutionTime = 8.28 s  ClockTime = 9 s

fieldMinMax minMax write:
    min(mag(U)) = 0 in cell 36960 at location (0.000485708 0 0.05)
    max(mag(U)) = 71.4836 in cell 37860 at location (0.00243313 0.000124751 0.05)

Time = 0.19

smoothSolver:  Solving for Ux, Initial residual = 0.000690947, Final residual = 4.87047e-05, No Iterations 4
smoothSolver:  Solving for Uy, Initial residual = 0.0124535, Final residual = 0.000125047, No Iterations 1
GAMG:  Solving for p, Initial residual = 0.0013794, Final residual = 0.000128637, No Iterations 3
time step continuity errors : sum local = 8.188e-07, global = 2.82081e-08, cumulative = 6.12367e-06
ExecutionTime = 8.54 s  ClockTime = 10 s

fieldMinMax minMax write:
    min(mag(U)) = 0 in cell 36960 at location (0.000485708 0 0.05)
    max(mag(U)) = 71.4821 in cell 37860 at location (0.00243313 0.000124751 0.05)

Time = 0.2

smoothSolver:  Solving for Ux, Initial residual = 0.000646498, Final residual = 4.58261e-05, No Iterations 4
smoothSolver:  Solving for Uy, Initial residual = 0.0117365, Final residual = 0.00011621, No Iterations 1
GAMG:  Solving for p, Initial residual = 0.00128785, Final residual = 0.000112385, No Iterations 3
time step continuity errors : sum local = 7.05311e-07, global = 1.89721e-08, cumulative = 6.14264e-06
ExecutionTime = 8.79 s  ClockTime = 10 s

fieldMinMax minMax write:
    min(mag(U)) = 0 in cell 36960 at location (0.000485708 0 0.05)
    max(mag(U)) = 71.481 in cell 37860 at location (0.00243313 0.000124751 0.05)

Time = 0.21

smoothSolver:  Solving for Ux, Initial residual = 0.000606992, Final residual = 4.32249e-05, No Iterations 4
smoothSolver:  Solving for Uy, Initial residual = 0.0111363, Final residual = 0.000108662, No Iterations 1
GAMG:  Solving for p, Initial residual = 0.00119761, Final residual = 9.44552e-05, No Iterations 3
time step continuity errors : sum local = 5.86486e-07, global = 3.57001e-08, cumulative = 6.17834e-06
ExecutionTime = 9.04 s  ClockTime = 10 s

fieldMinMax minMax write:
    min(mag(U)) = 0 in cell 36960 at location (0.000485708 0 0.05)
    max(mag(U)) = 71.4802 in cell 37860 at location (0.00243313 0.000124751 0.05)

Time = 0.22

smoothSolver:  Solving for Ux, Initial residual = 0.000571849, Final residual = 4.08623e-05, No Iterations 4
smoothSolver:  Solving for Uy, Initial residual = 0.0105987, Final residual = 0.000102064, No Iterations 1
GAMG:  Solving for p, Initial residual = 0.00111374, Final residual = 8.14027e-05, No Iterations 3
time step continuity errors : sum local = 5.01347e-07, global = 5.93502e-08, cumulative = 6.23769e-06
ExecutionTime = 9.3 s  ClockTime = 10 s

fieldMinMax minMax write:
    min(mag(U)) = 0 in cell 36960 at location (0.000485708 0 0.05)
    max(mag(U)) = 71.4796 in cell 37860 at location (0.00243313 0.000124751 0.05)

Time = 0.23

smoothSolver:  Solving for Ux, Initial residual = 0.000540327, Final residual = 3.87069e-05, No Iterations 4
smoothSolver:  Solving for Uy, Initial residual = 0.0100994, Final residual = 9.62783e-05, No Iterations 1
GAMG:  Solving for p, Initial residual = 0.00104335, Final residual = 7.65933e-05, No Iterations 3
time step continuity errors : sum local = 4.68422e-07, global = 8.50196e-08, cumulative = 6.32271e-06
ExecutionTime = 9.62 s  ClockTime = 11 s

fieldMinMax minMax write:
    min(mag(U)) = 0 in cell 36960 at location (0.000485708 0 0.05)
    max(mag(U)) = 71.4791 in cell 37860 at location (0.00243313 0.000124751 0.05)

Time = 0.24

smoothSolver:  Solving for Ux, Initial residual = 0.000511843, Final residual = 3.67323e-05, No Iterations 4
smoothSolver:  Solving for Uy, Initial residual = 0.00964581, Final residual = 9.11401e-05, No Iterations 1
GAMG:  Solving for p, Initial residual = 0.000981784, Final residual = 7.61105e-05, No Iterations 3
time step continuity errors : sum local = 4.62607e-07, global = 1.13015e-07, cumulative = 6.43572e-06
ExecutionTime = 9.93 s  ClockTime = 11 s

fieldMinMax minMax write:
    min(mag(U)) = 0 in cell 36960 at location (0.000485708 0 0.05)
    max(mag(U)) = 71.4788 in cell 37860 at location (0.00243313 0.000124751 0.05)

Time = 0.25

smoothSolver:  Solving for Ux, Initial residual = 0.000485855, Final residual = 3.49167e-05, No Iterations 4
smoothSolver:  Solving for Uy, Initial residual = 0.00923128, Final residual = 8.65173e-05, No Iterations 1
GAMG:  Solving for p, Initial residual = 0.000927566, Final residual = 7.73474e-05, No Iterations 3
time step continuity errors : sum local = 4.67481e-07, global = 1.40712e-07, cumulative = 6.57643e-06
ExecutionTime = 10.23 s  ClockTime = 11 s

fieldMinMax minMax write:
    min(mag(U)) = 0 in cell 36960 at location (0.000485708 0 0.05)
    max(mag(U)) = 71.4785 in cell 37860 at location (0.00243313 0.000124751 0.05)

Time = 0.26

smoothSolver:  Solving for Ux, Initial residual = 0.000462087, Final residual = 3.32415e-05, No Iterations 4
smoothSolver:  Solving for Uy, Initial residual = 0.00884446, Final residual = 8.23169e-05, No Iterations 1
GAMG:  Solving for p, Initial residual = 0.000878938, Final residual = 8.0329e-05, No Iterations 3
time step continuity errors : sum local = 4.83052e-07, global = 1.68424e-07, cumulative = 6.74486e-06
ExecutionTime = 10.56 s  ClockTime = 12 s

fieldMinMax minMax write:
    min(mag(U)) = 0 in cell 36960 at location (0.000485708 0 0.05)
    max(mag(U)) = 71.4783 in cell 37860 at location (0.00243313 0.000124751 0.05)

Time = 0.27

smoothSolver:  Solving for Ux, Initial residual = 0.000440236, Final residual = 3.16911e-05, No Iterations 4
smoothSolver:  Solving for Uy, Initial residual = 0.00847747, Final residual = 7.8457e-05, No Iterations 1
GAMG:  Solving for p, Initial residual = 0.000838005, Final residual = 8.28798e-05, No Iterations 3
time step continuity errors : sum local = 4.96058e-07, global = 1.85308e-07, cumulative = 6.93017e-06
ExecutionTime = 10.9 s  ClockTime = 12 s

fieldMinMax minMax write:
    min(mag(U)) = 0 in cell 36960 at location (0.000485708 0 0.05)
    max(mag(U)) = 71.4781 in cell 37860 at location (0.00243313 0.000124751 0.05)

Time = 0.28

smoothSolver:  Solving for Ux, Initial residual = 0.000420168, Final residual = 3.02521e-05, No Iterations 4
smoothSolver:  Solving for Uy, Initial residual = 0.00812427, Final residual = 7.49234e-05, No Iterations 1
GAMG:  Solving for p, Initial residual = 0.000797594, Final residual = 5.6064e-05, No Iterations 4
time step continuity errors : sum local = 3.34092e-07, global = -6.8356e-08, cumulative = 6.86181e-06
ExecutionTime = 11.22 s  ClockTime = 12 s

fieldMinMax minMax write:
    min(mag(U)) = 0 in cell 36960 at location (0.000485708 0 0.05)
    max(mag(U)) = 71.478 in cell 37860 at location (0.00243313 0.000124751 0.05)

Time = 0.29

smoothSolver:  Solving for Ux, Initial residual = 0.000401928, Final residual = 2.89131e-05, No Iterations 4
smoothSolver:  Solving for Uy, Initial residual = 0.00777037, Final residual = 7.15242e-05, No Iterations 1
GAMG:  Solving for p, Initial residual = 0.000740935, Final residual = 6.07393e-05, No Iterations 3
time step continuity errors : sum local = 3.59676e-07, global = 5.72672e-08, cumulative = 6.91908e-06
ExecutionTime = 11.52 s  ClockTime = 13 s

fieldMinMax minMax write:
    min(mag(U)) = 0 in cell 36960 at location (0.000485708 0 0.05)
    max(mag(U)) = 71.4778 in cell 37860 at location (0.00243313 0.000124751 0.05)

Time = 0.3

smoothSolver:  Solving for Ux, Initial residual = 0.000384584, Final residual = 2.7664e-05, No Iterations 4
smoothSolver:  Solving for Uy, Initial residual = 0.00743652, Final residual = 6.86113e-05, No Iterations 1
GAMG:  Solving for p, Initial residual = 0.000697031, Final residual = 6.75587e-05, No Iterations 3
time step continuity errors : sum local = 3.98512e-07, global = 1.0394e-07, cumulative = 7.02302e-06
ExecutionTime = 11.82 s  ClockTime = 13 s

fieldMinMax minMax write:
    min(mag(U)) = 0 in cell 36960 at location (0.000485708 0 0.05)
    max(mag(U)) = 71.4777 in cell 37860 at location (0.00243313 0.000124751 0.05)

Time = 0.31

smoothSolver:  Solving for Ux, Initial residual = 0.000368874, Final residual = 2.64961e-05, No Iterations 4
smoothSolver:  Solving for Uy, Initial residual = 0.00712946, Final residual = 6.58761e-05, No Iterations 1
GAMG:  Solving for p, Initial residual = 0.000668139, Final residual = 4.61148e-05, No Iterations 4
time step continuity errors : sum local = 2.71279e-07, global = -4.87452e-08, cumulative = 6.97427e-06
ExecutionTime = 12.15 s  ClockTime = 13 s

fieldMinMax minMax write:
    min(mag(U)) = 0 in cell 36960 at location (0.000485708 0 0.05)
    max(mag(U)) = 71.4776 in cell 37860 at location (0.00243313 0.000124751 0.05)

Time = 0.32

smoothSolver:  Solving for Ux, Initial residual = 0.000354612, Final residual = 2.54021e-05, No Iterations 4
smoothSolver:  Solving for Uy, Initial residual = 0.00681825, Final residual = 6.32249e-05, No Iterations 1
GAMG:  Solving for p, Initial residual = 0.000624727, Final residual = 5.97842e-05, No Iterations 3
time step continuity errors : sum local = 3.50301e-07, global = 6.98655e-08, cumulative = 7.04414e-06
ExecutionTime = 12.47 s  ClockTime = 14 s

fieldMinMax minMax write:
    min(mag(U)) = 0 in cell 36960 at location (0.000485708 0 0.05)
    max(mag(U)) = 71.4775 in cell 37860 at location (0.00243313 0.000124751 0.05)

Time = 0.33

smoothSolver:  Solving for Ux, Initial residual = 0.00034088, Final residual = 2.43753e-05, No Iterations 4
smoothSolver:  Solving for Uy, Initial residual = 0.00651796, Final residual = 6.09183e-05, No Iterations 1
GAMG:  Solving for p, Initial residual = 0.000593476, Final residual = 4.12936e-05, No Iterations 4
time step continuity errors : sum local = 2.41366e-07, global = -4.39526e-08, cumulative = 7.00019e-06
ExecutionTime = 12.83 s  ClockTime = 14 s

fieldMinMax minMax write:
    min(mag(U)) = 0 in cell 36960 at location (0.000485708 0 0.05)
    max(mag(U)) = 71.4774 in cell 37860 at location (0.00243313 0.000124751 0.05)

Time = 0.34

smoothSolver:  Solving for Ux, Initial residual = 0.000328365, Final residual = 2.34098e-05, No Iterations 4
smoothSolver:  Solving for Uy, Initial residual = 0.00622827, Final residual = 5.85865e-05, No Iterations 1
GAMG:  Solving for p, Initial residual = 0.000557708, Final residual = 5.46249e-05, No Iterations 3
time step continuity errors : sum local = 3.182e-07, global = 4.90569e-08, cumulative = 7.04924e-06
ExecutionTime = 13.14 s  ClockTime = 14 s

fieldMinMax minMax write:
    min(mag(U)) = 0 in cell 36960 at location (0.000485708 0 0.05)
    max(mag(U)) = 71.4773 in cell 37860 at location (0.00243313 0.000124751 0.05)

Time = 0.35

smoothSolver:  Solving for Ux, Initial residual = 0.000316258, Final residual = 2.25006e-05, No Iterations 4
smoothSolver:  Solving for Uy, Initial residual = 0.00595534, Final residual = 5.65935e-05, No Iterations 1
GAMG:  Solving for p, Initial residual = 0.000535258, Final residual = 3.86928e-05, No Iterations 4
time step continuity errors : sum local = 2.25021e-07, global = -4.37674e-08, cumulative = 7.00547e-06
ExecutionTime = 13.51 s  ClockTime = 15 s

fieldMinMax minMax write:
    min(mag(U)) = 0 in cell 36960 at location (0.000485708 0 0.05)
    max(mag(U)) = 71.4772 in cell 37860 at location (0.00243313 0.000124751 0.05)

Time = 0.36

smoothSolver:  Solving for Ux, Initial residual = 0.000305193, Final residual = 2.16428e-05, No Iterations 4
smoothSolver:  Solving for Uy, Initial residual = 0.00568314, Final residual = 5.45283e-05, No Iterations 1
GAMG:  Solving for p, Initial residual = 0.000500933, Final residual = 4.96769e-05, No Iterations 3
time step continuity errors : sum local = 2.88149e-07, global = 2.59228e-08, cumulative = 7.0314e-06
ExecutionTime = 13.81 s  ClockTime = 15 s

fieldMinMax minMax write:
    min(mag(U)) = 0 in cell 36960 at location (0.000485708 0 0.05)
    max(mag(U)) = 71.4771 in cell 37860 at location (0.00243313 0.000124751 0.05)

Time = 0.37

smoothSolver:  Solving for Ux, Initial residual = 0.000294363, Final residual = 2.08323e-05, No Iterations 4
smoothSolver:  Solving for Uy, Initial residual = 0.0054353, Final residual = 5.28211e-05, No Iterations 1
GAMG:  Solving for p, Initial residual = 0.000483636, Final residual = 3.60218e-05, No Iterations 4
time step continuity errors : sum local = 2.08784e-07, global = -4.22279e-08, cumulative = 6.98917e-06
ExecutionTime = 14.14 s  ClockTime = 15 s

fieldMinMax minMax write:
    min(mag(U)) = 0 in cell 36960 at location (0.000485708 0 0.05)
    max(mag(U)) = 71.477 in cell 37860 at location (0.00243313 0.000124751 0.05)

Time = 0.38

smoothSolver:  Solving for Ux, Initial residual = 0.000284319, Final residual = 2.00652e-05, No Iterations 4
smoothSolver:  Solving for Uy, Initial residual = 0.005181, Final residual = 5.09826e-05, No Iterations 1
GAMG:  Solving for p, Initial residual = 0.000449607, Final residual = 4.41882e-05, No Iterations 3
time step continuity errors : sum local = 2.55695e-07, global = 5.46231e-09, cumulative = 6.99463e-06
ExecutionTime = 14.46 s  ClockTime = 16 s

fieldMinMax minMax write:
    min(mag(U)) = 0 in cell 36960 at location (0.000485708 0 0.05)
    max(mag(U)) = 71.4769 in cell 37860 at location (0.00243313 0.000124751 0.05)

Time = 0.39

smoothSolver:  Solving for Ux, Initial residual = 0.000274442, Final residual = 1.93381e-05, No Iterations 4
smoothSolver:  Solving for Uy, Initial residual = 0.00495944, Final residual = 4.95235e-05, No Iterations 1
GAMG:  Solving for p, Initial residual = 0.000437776, Final residual = 3.17044e-05, No Iterations 4
time step continuity errors : sum local = 1.83506e-07, global = -3.15631e-08, cumulative = 6.96307e-06
ExecutionTime = 14.8 s  ClockTime = 16 s

fieldMinMax minMax write:
    min(mag(U)) = 0 in cell 36960 at location (0.000485708 0 0.05)
    max(mag(U)) = 71.4769 in cell 37860 at location (0.00243313 0.000124751 0.05)

Time = 0.4

smoothSolver:  Solving for Ux, Initial residual = 0.000265209, Final residual = 1.86482e-05, No Iterations 4
smoothSolver:  Solving for Uy, Initial residual = 0.00471998, Final residual = 4.78599e-05, No Iterations 1
GAMG:  Solving for p, Initial residual = 0.000403377, Final residual = 3.85764e-05, No Iterations 3
time step continuity errors : sum local = 2.23231e-07, global = -3.13127e-10, cumulative = 6.96276e-06
ExecutionTime = 15.13 s  ClockTime = 16 s

fieldMinMax minMax write:
    min(mag(U)) = 0 in cell 36960 at location (0.000485708 0 0.05)
    max(mag(U)) = 71.4768 in cell 37860 at location (0.00243313 0.000124751 0.05)

Time = 0.41

smoothSolver:  Solving for Ux, Initial residual = 0.000256068, Final residual = 1.79924e-05, No Iterations 4
smoothSolver:  Solving for Uy, Initial residual = 0.00452239, Final residual = 4.66094e-05, No Iterations 1
GAMG:  Solving for p, Initial residual = 0.00039626, Final residual = 2.71152e-05, No Iterations 4
time step continuity errors : sum local = 1.5709e-07, global = -2.25944e-08, cumulative = 6.94016e-06
ExecutionTime = 15.48 s  ClockTime = 17 s

fieldMinMax minMax write:
    min(mag(U)) = 0 in cell 36960 at location (0.000485708 0 0.05)
    max(mag(U)) = 71.4767 in cell 37860 at location (0.00243313 0.000124751 0.05)

Time = 0.42

smoothSolver:  Solving for Ux, Initial residual = 0.000247561, Final residual = 1.73685e-05, No Iterations 4
smoothSolver:  Solving for Uy, Initial residual = 0.00429902, Final residual = 4.50848e-05, No Iterations 1
GAMG:  Solving for p, Initial residual = 0.000362698, Final residual = 3.4413e-05, No Iterations 3
time step continuity errors : sum local = 1.99685e-07, global = -3.35998e-09, cumulative = 6.9368e-06
ExecutionTime = 15.8 s  ClockTime = 17 s

fieldMinMax minMax write:
    min(mag(U)) = 0 in cell 36960 at location (0.000485708 0 0.05)
    max(mag(U)) = 71.4766 in cell 37860 at location (0.00243313 0.000124751 0.05)

Time = 0.43

smoothSolver:  Solving for Ux, Initial residual = 0.000239048, Final residual = 1.6774e-05, No Iterations 4
smoothSolver:  Solving for Uy, Initial residual = 0.00412039, Final residual = 4.39696e-05, No Iterations 1
GAMG:  Solving for p, Initial residual = 0.000358002, Final residual = 1.97921e-05, No Iterations 4
time step continuity errors : sum local = 1.1505e-07, global = 5.44894e-09, cumulative = 6.94225e-06
ExecutionTime = 16.14 s  ClockTime = 17 s

fieldMinMax minMax write:
    min(mag(U)) = 0 in cell 36960 at location (0.000485708 0 0.05)
    max(mag(U)) = 71.4765 in cell 37860 at location (0.00243313 0.000124751 0.05)

Time = 0.44

smoothSolver:  Solving for Ux, Initial residual = 0.000231199, Final residual = 1.62072e-05, No Iterations 4
smoothSolver:  Solving for Uy, Initial residual = 0.00391798, Final residual = 4.25594e-05, No Iterations 1
GAMG:  Solving for p, Initial residual = 0.00032358, Final residual = 2.90126e-05, No Iterations 3
time step continuity errors : sum local = 1.69202e-07, global = 2.39063e-09, cumulative = 6.94464e-06
ExecutionTime = 16.48 s  ClockTime = 18 s

fieldMinMax minMax write:
    min(mag(U)) = 0 in cell 36960 at location (0.000485708 0 0.05)
    max(mag(U)) = 71.4765 in cell 37860 at location (0.00243313 0.000124751 0.05)

Time = 0.45

smoothSolver:  Solving for Ux, Initial residual = 0.000223205, Final residual = 1.5666e-05, No Iterations 4
smoothSolver:  Solving for Uy, Initial residual = 0.00376061, Final residual = 4.15367e-05, No Iterations 1
GAMG:  Solving for p, Initial residual = 0.000321511, Final residual = 3.18826e-05, No Iterations 3
time step continuity errors : sum local = 1.86341e-07, global = -3.54994e-09, cumulative = 6.94109e-06
ExecutionTime = 16.81 s  ClockTime = 18 s

fieldMinMax minMax write:
    min(mag(U)) = 0 in cell 36960 at location (0.000485708 0 0.05)
    max(mag(U)) = 71.4764 in cell 37860 at location (0.00243313 0.000124751 0.05)

Time = 0.46

smoothSolver:  Solving for Ux, Initial residual = 0.00021578, Final residual = 1.51487e-05, No Iterations 4
smoothSolver:  Solving for Uy, Initial residual = 0.00359085, Final residual = 4.03077e-05, No Iterations 1
GAMG:  Solving for p, Initial residual = 0.000302321, Final residual = 2.94946e-05, No Iterations 3
time step continuity errors : sum local = 1.73099e-07, global = -7.21112e-09, cumulative = 6.93388e-06
ExecutionTime = 17.15 s  ClockTime = 18 s

fieldMinMax minMax write:
    min(mag(U)) = 0 in cell 36960 at location (0.000485708 0 0.05)
    max(mag(U)) = 71.4763 in cell 37860 at location (0.00243313 0.000124751 0.05)

Time = 0.47

smoothSolver:  Solving for Ux, Initial residual = 0.000208471, Final residual = 1.4654e-05, No Iterations 4
smoothSolver:  Solving for Uy, Initial residual = 0.00343844, Final residual = 3.9163e-05, No Iterations 1
GAMG:  Solving for p, Initial residual = 0.000283198, Final residual = 2.67741e-05, No Iterations 3
time step continuity errors : sum local = 1.57799e-07, global = -1.15403e-08, cumulative = 6.92234e-06
ExecutionTime = 17.49 s  ClockTime = 19 s

fieldMinMax minMax write:
    min(mag(U)) = 0 in cell 36960 at location (0.000485708 0 0.05)
    max(mag(U)) = 71.4762 in cell 37860 at location (0.00243313 0.000124751 0.05)

Time = 0.48

smoothSolver:  Solving for Ux, Initial residual = 0.000201277, Final residual = 1.41803e-05, No Iterations 4
smoothSolver:  Solving for Uy, Initial residual = 0.00329594, Final residual = 3.80652e-05, No Iterations 1
GAMG:  Solving for p, Initial residual = 0.000267086, Final residual = 2.53854e-05, No Iterations 3
time step continuity errors : sum local = 1.50307e-07, global = -1.68176e-08, cumulative = 6.90552e-06
ExecutionTime = 17.9 s  ClockTime = 19 s

fieldMinMax minMax write:
    min(mag(U)) = 0 in cell 36960 at location (0.000485708 0 0.05)
    max(mag(U)) = 71.4762 in cell 37860 at location (0.00243313 0.000124751 0.05)

Time = 0.49

smoothSolver:  Solving for Ux, Initial residual = 0.000194315, Final residual = 1.37263e-05, No Iterations 4
smoothSolver:  Solving for Uy, Initial residual = 0.00316138, Final residual = 3.69931e-05, No Iterations 1
GAMG:  Solving for p, Initial residual = 0.00025298, Final residual = 2.49863e-05, No Iterations 3
time step continuity errors : sum local = 1.48706e-07, global = -2.29923e-08, cumulative = 6.88253e-06
ExecutionTime = 18.24 s  ClockTime = 19 s

fieldMinMax minMax write:
    min(mag(U)) = 0 in cell 36960 at location (0.000485708 0 0.05)
    max(mag(U)) = 71.4761 in cell 37860 at location (0.00243313 0.000124751 0.05)

Time = 0.5

smoothSolver:  Solving for Ux, Initial residual = 0.000187634, Final residual = 1.32908e-05, No Iterations 4
smoothSolver:  Solving for Uy, Initial residual = 0.00303414, Final residual = 3.59443e-05, No Iterations 1
GAMG:  Solving for p, Initial residual = 0.000240206, Final residual = 1.72069e-05, No Iterations 4
time step continuity errors : sum local = 1.02977e-07, global = 2.50409e-08, cumulative = 6.90757e-06
ExecutionTime = 19.14 s  ClockTime = 21 s

fieldMinMax minMax write:
    min(mag(U)) = 0 in cell 36960 at location (0.000485708 0 0.05)
    max(mag(U)) = 71.476 in cell 37860 at location (0.00243313 0.000124751 0.05)

yPlus yPlus write:
    writing field yPlus
    patch topWall y+ : min = 0.0346909, max = 0.375907, average = 0.293864
    patch bottomWall y+ : min = 1.63785, max = 10.1405, average = 2.35834
writeCellCentres writeCellCentres write:
    writing cell-volumes field C to 0.5
    Writing the x component field of the cell-centres Cx to 0.5
    Writing the y component field of the cell-centres Cy to 0.5
    Writing the z component field of the cell-centres Cz to 0.5
wallShearStress wallShearStress write:
    writing field wallShearStress
    min/max(topWall) = (-3.28067e-09 -9.953e-07 0), (6.84621e-09 -8.92389e-09 0)
    min/max(bottomWall) = (-32.5935 -0.486616 0), (-0.850259 0.0254802 0)
Time = 0.51

smoothSolver:  Solving for Ux, Initial residual = 0.000181508, Final residual = 1.28727e-05, No Iterations 4
smoothSolver:  Solving for Uy, Initial residual = 0.00291636, Final residual = 3.49078e-05, No Iterations 1
GAMG:  Solving for p, Initial residual = 0.000222345, Final residual = 1.33738e-05, No Iterations 4
time step continuity errors : sum local = 8.05877e-08, global = -2.74074e-08, cumulative = 6.88016e-06
ExecutionTime = 20.07 s  ClockTime = 22 s

fieldMinMax minMax write:
    min(mag(U)) = 0 in cell 36960 at location (0.000485708 0 0.05)
    max(mag(U)) = 71.4759 in cell 37860 at location (0.00243313 0.000124751 0.05)

Time = 0.52

smoothSolver:  Solving for Ux, Initial residual = 0.000175238, Final residual = 1.24713e-05, No Iterations 4
smoothSolver:  Solving for Uy, Initial residual = 0.00279397, Final residual = 3.39186e-05, No Iterations 1
GAMG:  Solving for p, Initial residual = 0.000210038, Final residual = 1.48333e-05, No Iterations 4
time step continuity errors : sum local = 8.98358e-08, global = 1.97724e-08, cumulative = 6.89994e-06
ExecutionTime = 20.48 s  ClockTime = 22 s

fieldMinMax minMax write:
    min(mag(U)) = 0 in cell 36960 at location (0.000485708 0 0.05)
    max(mag(U)) = 71.4759 in cell 37860 at location (0.00243313 0.000124751 0.05)

Time = 0.53

smoothSolver:  Solving for Ux, Initial residual = 0.000169314, Final residual = 1.20854e-05, No Iterations 4
smoothSolver:  Solving for Uy, Initial residual = 0.00267607, Final residual = 3.29076e-05, No Iterations 1
GAMG:  Solving for p, Initial residual = 0.00020227, Final residual = 1.68734e-05, No Iterations 4
time step continuity errors : sum local = 1.02818e-07, global = 2.04891e-08, cumulative = 6.92042e-06
ExecutionTime = 20.85 s  ClockTime = 23 s

fieldMinMax minMax write:
    min(mag(U)) = 0 in cell 36960 at location (0.000485708 0 0.05)
    max(mag(U)) = 71.4758 in cell 37860 at location (0.00243313 0.000124751 0.05)

Time = 0.54

smoothSolver:  Solving for Ux, Initial residual = 0.000163612, Final residual = 1.17144e-05, No Iterations 4
smoothSolver:  Solving for Uy, Initial residual = 0.0025571, Final residual = 3.19072e-05, No Iterations 1
GAMG:  Solving for p, Initial residual = 0.000195434, Final residual = 1.46626e-05, No Iterations 5
time step continuity errors : sum local = 8.98527e-08, global = -2.03212e-08, cumulative = 6.9001e-06
ExecutionTime = 21.23 s  ClockTime = 23 s

fieldMinMax minMax write:
    min(mag(U)) = 0 in cell 36960 at location (0.000485708 0 0.05)
    max(mag(U)) = 71.4757 in cell 37860 at location (0.00243313 0.000124751 0.05)

Time = 0.55

smoothSolver:  Solving for Ux, Initial residual = 0.000158501, Final residual = 1.13572e-05, No Iterations 4
smoothSolver:  Solving for Uy, Initial residual = 0.00244194, Final residual = 3.09517e-05, No Iterations 1
GAMG:  Solving for p, Initial residual = 0.000185899, Final residual = 1.77812e-05, No Iterations 4
time step continuity errors : sum local = 1.09739e-07, global = 2.37198e-08, cumulative = 6.92382e-06
ExecutionTime = 21.6 s  ClockTime = 23 s

fieldMinMax minMax write:
    min(mag(U)) = 0 in cell 36960 at location (0.000485708 0 0.05)
    max(mag(U)) = 71.4757 in cell 37860 at location (0.00243313 0.000124751 0.05)

Time = 0.56

smoothSolver:  Solving for Ux, Initial residual = 0.000153434, Final residual = 1.10132e-05, No Iterations 4
smoothSolver:  Solving for Uy, Initial residual = 0.00232216, Final residual = 2.99904e-05, No Iterations 1
GAMG:  Solving for p, Initial residual = 0.000178303, Final residual = 1.4118e-05, No Iterations 5
time step continuity errors : sum local = 8.77061e-08, global = -1.77063e-08, cumulative = 6.90612e-06
ExecutionTime = 21.99 s  ClockTime = 24 s

fieldMinMax minMax write:
    min(mag(U)) = 0 in cell 36960 at location (0.000485708 0 0.05)
    max(mag(U)) = 71.4756 in cell 37860 at location (0.00243313 0.000124751 0.05)

Time = 0.57

smoothSolver:  Solving for Ux, Initial residual = 0.000148659, Final residual = 1.06817e-05, No Iterations 4
smoothSolver:  Solving for Uy, Initial residual = 0.00220088, Final residual = 2.90663e-05, No Iterations 1
GAMG:  Solving for p, Initial residual = 0.000171277, Final residual = 1.13632e-05, No Iterations 5
time step continuity errors : sum local = 7.10482e-08, global = -1.75947e-08, cumulative = 6.88852e-06
ExecutionTime = 22.38 s  ClockTime = 24 s

fieldMinMax minMax write:
    min(mag(U)) = 0 in cell 36960 at location (0.000485708 0 0.05)
    max(mag(U)) = 71.4755 in cell 37860 at location (0.00243313 0.000124751 0.05)

Time = 0.58

smoothSolver:  Solving for Ux, Initial residual = 0.000143979, Final residual = 1.0362e-05, No Iterations 4
smoothSolver:  Solving for Uy, Initial residual = 0.00207816, Final residual = 2.81435e-05, No Iterations 1
GAMG:  Solving for p, Initial residual = 0.000161654, Final residual = 1.38942e-05, No Iterations 4
time step continuity errors : sum local = 8.74194e-08, global = 1.3919e-08, cumulative = 6.90244e-06
ExecutionTime = 22.73 s  ClockTime = 25 s

fieldMinMax minMax write:
    min(mag(U)) = 0 in cell 36960 at location (0.000485708 0 0.05)
    max(mag(U)) = 71.4754 in cell 37860 at location (0.00243313 0.000124751 0.05)

Time = 0.59

smoothSolver:  Solving for Ux, Initial residual = 0.000139452, Final residual = 1.00533e-05, No Iterations 4
smoothSolver:  Solving for Uy, Initial residual = 0.00195758, Final residual = 2.7251e-05, No Iterations 1
GAMG:  Solving for p, Initial residual = 0.00015574, Final residual = 1.23622e-05, No Iterations 5
time step continuity errors : sum local = 7.82931e-08, global = -1.44078e-08, cumulative = 6.88803e-06
ExecutionTime = 23.12 s  ClockTime = 25 s

fieldMinMax minMax write:
    min(mag(U)) = 0 in cell 36960 at location (0.000485708 0 0.05)
    max(mag(U)) = 71.4753 in cell 37860 at location (0.00243313 0.000124751 0.05)

Time = 0.6

smoothSolver:  Solving for Ux, Initial residual = 0.000135019, Final residual = 9.75518e-06, No Iterations 4
smoothSolver:  Solving for Uy, Initial residual = 0.0018371, Final residual = 2.63947e-05, No Iterations 1
GAMG:  Solving for p, Initial residual = 0.000152779, Final residual = 1.03328e-05, No Iterations 5
time step continuity errors : sum local = 6.58276e-08, global = -1.29223e-08, cumulative = 6.87511e-06
ExecutionTime = 23.52 s  ClockTime = 25 s

fieldMinMax minMax write:
    min(mag(U)) = 0 in cell 36960 at location (0.000485708 0 0.05)
    max(mag(U)) = 71.4753 in cell 37860 at location (0.00243313 0.000124751 0.05)

Time = 0.61

smoothSolver:  Solving for Ux, Initial residual = 0.000130806, Final residual = 9.46699e-06, No Iterations 4
smoothSolver:  Solving for Uy, Initial residual = 0.00172179, Final residual = 2.55658e-05, No Iterations 1
GAMG:  Solving for p, Initial residual = 0.000144237, Final residual = 1.13595e-05, No Iterations 4
time step continuity errors : sum local = 7.28346e-08, global = 8.24659e-09, cumulative = 6.88336e-06
ExecutionTime = 23.9 s  ClockTime = 26 s

fieldMinMax minMax write:
    min(mag(U)) = 0 in cell 36960 at location (0.000485708 0 0.05)
    max(mag(U)) = 71.4752 in cell 37860 at location (0.00243313 0.000124751 0.05)

Time = 0.62

smoothSolver:  Solving for Ux, Initial residual = 0.000126601, Final residual = 9.18829e-06, No Iterations 4
smoothSolver:  Solving for Uy, Initial residual = 0.00160925, Final residual = 2.47647e-05, No Iterations 1
GAMG:  Solving for p, Initial residual = 0.000137414, Final residual = 1.01966e-05, No Iterations 5
time step continuity errors : sum local = 6.57805e-08, global = -1.13305e-08, cumulative = 6.87203e-06
ExecutionTime = 24.31 s  ClockTime = 26 s

fieldMinMax minMax write:
    min(mag(U)) = 0 in cell 36960 at location (0.000485708 0 0.05)
    max(mag(U)) = 71.4751 in cell 37860 at location (0.00243313 0.000124751 0.05)

Time = 0.63

smoothSolver:  Solving for Ux, Initial residual = 0.000122458, Final residual = 8.91868e-06, No Iterations 4
smoothSolver:  Solving for Uy, Initial residual = 0.00150159, Final residual = 2.40073e-05, No Iterations 1
GAMG:  Solving for p, Initial residual = 0.00013426, Final residual = 8.12921e-06, No Iterations 5
time step continuity errors : sum local = 5.27371e-08, global = -1.12483e-08, cumulative = 6.86078e-06
ExecutionTime = 24.76 s  ClockTime = 27 s

fieldMinMax minMax write:
    min(mag(U)) = 0 in cell 36960 at location (0.000485708 0 0.05)
    max(mag(U)) = 71.4751 in cell 37860 at location (0.00243313 0.000124751 0.05)

Time = 0.64

smoothSolver:  Solving for Ux, Initial residual = 0.000118493, Final residual = 8.65772e-06, No Iterations 4
smoothSolver:  Solving for Uy, Initial residual = 0.00140395, Final residual = 2.32855e-05, No Iterations 1
GAMG:  Solving for p, Initial residual = 0.000126407, Final residual = 9.94664e-06, No Iterations 4
time step continuity errors : sum local = 6.49136e-08, global = -1.60142e-08, cumulative = 6.84476e-06
ExecutionTime = 25.16 s  ClockTime = 27 s

fieldMinMax minMax write:
    min(mag(U)) = 0 in cell 36960 at location (0.000485708 0 0.05)
    max(mag(U)) = 71.475 in cell 37860 at location (0.00243313 0.000124751 0.05)

Time = 0.65

smoothSolver:  Solving for Ux, Initial residual = 0.000114486, Final residual = 8.40511e-06, No Iterations 4
smoothSolver:  Solving for Uy, Initial residual = 0.00131233, Final residual = 2.2586e-05, No Iterations 1
GAMG:  Solving for p, Initial residual = 0.000122572, Final residual = 8.48517e-06, No Iterations 6
time step continuity errors : sum local = 5.5667e-08, global = -1.3007e-08, cumulative = 6.83176e-06
ExecutionTime = 25.57 s  ClockTime = 28 s

fieldMinMax minMax write:
    min(mag(U)) = 0 in cell 36960 at location (0.000485708 0 0.05)
    max(mag(U)) = 71.4749 in cell 37860 at location (0.00243313 0.000124751 0.05)

Time = 0.66

smoothSolver:  Solving for Ux, Initial residual = 0.000110652, Final residual = 8.16049e-06, No Iterations 4
smoothSolver:  Solving for Uy, Initial residual = 0.00123404, Final residual = 2.19615e-05, No Iterations 1
GAMG:  Solving for p, Initial residual = 0.000115787, Final residual = 9.54409e-06, No Iterations 4
time step continuity errors : sum local = 6.29833e-08, global = -2.10683e-08, cumulative = 6.81069e-06
ExecutionTime = 25.93 s  ClockTime = 28 s

fieldMinMax minMax write:
    min(mag(U)) = 0 in cell 36960 at location (0.000485708 0 0.05)
    max(mag(U)) = 71.4749 in cell 37860 at location (0.00243313 0.000124751 0.05)

Time = 0.67

smoothSolver:  Solving for Ux, Initial residual = 0.000106822, Final residual = 7.9236e-06, No Iterations 4
smoothSolver:  Solving for Uy, Initial residual = 0.00116382, Final residual = 2.1341e-05, No Iterations 1
GAMG:  Solving for p, Initial residual = 0.000111454, Final residual = 9.13184e-06, No Iterations 6
time step continuity errors : sum local = 6.05739e-08, global = -1.23638e-08, cumulative = 6.79833e-06
ExecutionTime = 26.37 s  ClockTime = 28 s

fieldMinMax minMax write:
    min(mag(U)) = 0 in cell 36960 at location (0.000485708 0 0.05)
    max(mag(U)) = 71.4748 in cell 37860 at location (0.00243313 0.000124751 0.05)

Time = 0.68

smoothSolver:  Solving for Ux, Initial residual = 0.000103045, Final residual = 7.69413e-06, No Iterations 4
smoothSolver:  Solving for Uy, Initial residual = 0.00110585, Final residual = 2.07933e-05, No Iterations 1
GAMG:  Solving for p, Initial residual = 0.00010567, Final residual = 8.74946e-06, No Iterations 4
time step continuity errors : sum local = 5.83642e-08, global = -2.04741e-08, cumulative = 6.77785e-06
ExecutionTime = 26.74 s  ClockTime = 29 s

fieldMinMax minMax write:
    min(mag(U)) = 0 in cell 36960 at location (0.000485708 0 0.05)
    max(mag(U)) = 71.4747 in cell 37860 at location (0.00243313 0.000124751 0.05)

Time = 0.69

smoothSolver:  Solving for Ux, Initial residual = 9.93157e-05, Final residual = 7.47185e-06, No Iterations 4
smoothSolver:  Solving for Uy, Initial residual = 0.00105675, Final residual = 2.02433e-05, No Iterations 1
GAMG:  Solving for p, Initial residual = 0.000100309, Final residual = 8.3736e-06, No Iterations 6
time step continuity errors : sum local = 5.61226e-08, global = -1.11036e-08, cumulative = 6.76675e-06
ExecutionTime = 27.17 s  ClockTime = 29 s

fieldMinMax minMax write:
    min(mag(U)) = 0 in cell 36960 at location (0.000485708 0 0.05)
    max(mag(U)) = 71.4747 in cell 37860 at location (0.00243313 0.000124751 0.05)

Time = 0.7

smoothSolver:  Solving for Ux, Initial residual = 9.56926e-05, Final residual = 7.25647e-06, No Iterations 4
smoothSolver:  Solving for Uy, Initial residual = 0.00101805, Final residual = 1.97619e-05, No Iterations 1
GAMG:  Solving for p, Initial residual = 9.46518e-05, Final residual = 8.3181e-06, No Iterations 4
time step continuity errors : sum local = 5.60512e-08, global = -2.24227e-08, cumulative = 6.74433e-06
ExecutionTime = 27.57 s  ClockTime = 30 s

fieldMinMax minMax write:
    min(mag(U)) = 0 in cell 36960 at location (0.000485708 0 0.05)
    max(mag(U)) = 71.4746 in cell 37860 at location (0.00243313 0.000124751 0.05)

Time = 0.71

smoothSolver:  Solving for Ux, Initial residual = 9.20801e-05, Final residual = 7.04782e-06, No Iterations 4
smoothSolver:  Solving for Uy, Initial residual = 0.000985808, Final residual = 1.92664e-05, No Iterations 1
GAMG:  Solving for p, Initial residual = 9.03715e-05, Final residual = 7.84295e-06, No Iterations 6
time step continuity errors : sum local = 5.3066e-08, global = -1.01248e-08, cumulative = 6.7342e-06
ExecutionTime = 28.03 s  ClockTime = 30 s

fieldMinMax minMax write:
    min(mag(U)) = 0 in cell 36960 at location (0.000485708 0 0.05)
    max(mag(U)) = 71.4746 in cell 37860 at location (0.00243313 0.000124751 0.05)

Time = 0.72

smoothSolver:  Solving for Ux, Initial residual = 8.88389e-05, Final residual = 6.84555e-06, No Iterations 4
smoothSolver:  Solving for Uy, Initial residual = 0.000966047, Final residual = 1.88526e-05, No Iterations 1
GAMG:  Solving for p, Initial residual = 8.47896e-05, Final residual = 7.36214e-06, No Iterations 4
time step continuity errors : sum local = 5.00962e-08, global = -2.01657e-08, cumulative = 6.71403e-06
ExecutionTime = 28.4 s  ClockTime = 30 s

fieldMinMax minMax write:
    min(mag(U)) = 0 in cell 36960 at location (0.000485708 0 0.05)
    max(mag(U)) = 71.4745 in cell 37860 at location (0.00243313 0.000124751 0.05)

Time = 0.73

smoothSolver:  Solving for Ux, Initial residual = 8.54656e-05, Final residual = 6.64959e-06, No Iterations 4
smoothSolver:  Solving for Uy, Initial residual = 0.000947731, Final residual = 1.84055e-05, No Iterations 1
GAMG:  Solving for p, Initial residual = 8.09188e-05, Final residual = 7.06399e-06, No Iterations 6
time step continuity errors : sum local = 4.82428e-08, global = -9.32787e-09, cumulative = 6.70471e-06
ExecutionTime = 28.83 s  ClockTime = 31 s

fieldMinMax minMax write:
    min(mag(U)) = 0 in cell 36960 at location (0.000485708 0 0.05)
    max(mag(U)) = 71.4744 in cell 37860 at location (0.00243313 0.000124751 0.05)

Time = 0.74

smoothSolver:  Solving for Ux, Initial residual = 8.25627e-05, Final residual = 6.45957e-06, No Iterations 4
smoothSolver:  Solving for Uy, Initial residual = 0.0009398, Final residual = 1.80309e-05, No Iterations 1
GAMG:  Solving for p, Initial residual = 7.60248e-05, Final residual = 7.28134e-06, No Iterations 4
time step continuity errors : sum local = 4.99905e-08, global = -2.03205e-08, cumulative = 6.68439e-06
ExecutionTime = 29.19 s  ClockTime = 31 s

fieldMinMax minMax write:
    min(mag(U)) = 0 in cell 36960 at location (0.000485708 0 0.05)
    max(mag(U)) = 71.4744 in cell 37860 at location (0.00243313 0.000124751 0.05)

Time = 0.75

smoothSolver:  Solving for Ux, Initial residual = 7.94906e-05, Final residual = 6.27543e-06, No Iterations 4
smoothSolver:  Solving for Uy, Initial residual = 0.000930249, Final residual = 1.76207e-05, No Iterations 1
GAMG:  Solving for p, Initial residual = 7.3528e-05, Final residual = 6.66576e-06, No Iterations 6
time step continuity errors : sum local = 4.5915e-08, global = -8.84747e-09, cumulative = 6.67554e-06
ExecutionTime = 29.59 s  ClockTime = 32 s

fieldMinMax minMax write:
    min(mag(U)) = 0 in cell 36960 at location (0.000485708 0 0.05)
    max(mag(U)) = 71.4743 in cell 37860 at location (0.00243313 0.000124751 0.05)

Time = 0.76

smoothSolver:  Solving for Ux, Initial residual = 7.71307e-05, Final residual = 6.09678e-06, No Iterations 4
smoothSolver:  Solving for Uy, Initial residual = 0.000931476, Final residual = 1.72831e-05, No Iterations 1
GAMG:  Solving for p, Initial residual = 6.87828e-05, Final residual = 6.64001e-06, No Iterations 4
time step continuity errors : sum local = 4.59855e-08, global = -1.87418e-08, cumulative = 6.6568e-06
ExecutionTime = 29.95 s  ClockTime = 32 s

fieldMinMax minMax write:
    min(mag(U)) = 0 in cell 36960 at location (0.000485708 0 0.05)
    max(mag(U)) = 71.4743 in cell 37860 at location (0.00243313 0.000124751 0.05)

Time = 0.77

smoothSolver:  Solving for Ux, Initial residual = 7.43987e-05, Final residual = 5.92363e-06, No Iterations 4
smoothSolver:  Solving for Uy, Initial residual = 0.000924712, Final residual = 1.69007e-05, No Iterations 1
GAMG:  Solving for p, Initial residual = 6.6878e-05, Final residual = 6.10693e-06, No Iterations 6
time step continuity errors : sum local = 4.24197e-08, global = -8.31234e-09, cumulative = 6.64848e-06
ExecutionTime = 30.38 s  ClockTime = 32 s

fieldMinMax minMax write:
    min(mag(U)) = 0 in cell 36960 at location (0.000485708 0 0.05)
    max(mag(U)) = 71.4743 in cell 37860 at location (0.00243313 0.000124751 0.05)

Time = 0.78

smoothSolver:  Solving for Ux, Initial residual = 7.24273e-05, Final residual = 5.75556e-06, No Iterations 4
smoothSolver:  Solving for Uy, Initial residual = 0.000927942, Final residual = 1.65818e-05, No Iterations 1
GAMG:  Solving for p, Initial residual = 6.28643e-05, Final residual = 4.51494e-06, No Iterations 6
time step continuity errors : sum local = 3.15209e-08, global = -7.41063e-09, cumulative = 6.64107e-06
ExecutionTime = 30.82 s  ClockTime = 33 s

fieldMinMax minMax write:
    min(mag(U)) = 0 in cell 36960 at location (0.000485708 0 0.05)
    max(mag(U)) = 71.4742 in cell 37860 at location (0.00243313 0.000124751 0.05)

Time = 0.79

smoothSolver:  Solving for Ux, Initial residual = 7.01164e-05, Final residual = 5.59258e-06, No Iterations 4
smoothSolver:  Solving for Uy, Initial residual = 0.000925868, Final residual = 1.62387e-05, No Iterations 1
GAMG:  Solving for p, Initial residual = 5.97271e-05, Final residual = 4.81768e-06, No Iterations 6
time step continuity errors : sum local = 3.37506e-08, global = -7.36049e-09, cumulative = 6.63371e-06
ExecutionTime = 31.24 s  ClockTime = 33 s

fieldMinMax minMax write:
    min(mag(U)) = 0 in cell 36960 at location (0.000485708 0 0.05)
    max(mag(U)) = 71.4742 in cell 37860 at location (0.00243313 0.000124751 0.05)

Time = 0.8

smoothSolver:  Solving for Ux, Initial residual = 6.79948e-05, Final residual = 5.4344e-06, No Iterations 4
smoothSolver:  Solving for Uy, Initial residual = 0.000923125, Final residual = 1.59064e-05, No Iterations 1
GAMG:  Solving for p, Initial residual = 5.77535e-05, Final residual = 4.72842e-06, No Iterations 6
time step continuity errors : sum local = 3.32488e-08, global = -7.23556e-09, cumulative = 6.62648e-06
ExecutionTime = 31.66 s  ClockTime = 34 s

fieldMinMax minMax write:
    min(mag(U)) = 0 in cell 36960 at location (0.000485708 0 0.05)
    max(mag(U)) = 71.4741 in cell 37860 at location (0.00243313 0.000124751 0.05)

Time = 0.81

smoothSolver:  Solving for Ux, Initial residual = 6.59435e-05, Final residual = 5.28086e-06, No Iterations 4
smoothSolver:  Solving for Uy, Initial residual = 0.000922395, Final residual = 1.55862e-05, No Iterations 1
GAMG:  Solving for p, Initial residual = 5.56315e-05, Final residual = 4.5789e-06, No Iterations 6
time step continuity errors : sum local = 3.2317e-08, global = -7.08026e-09, cumulative = 6.6194e-06
ExecutionTime = 32.09 s  ClockTime = 34 s

fieldMinMax minMax write:
    min(mag(U)) = 0 in cell 36960 at location (0.000485708 0 0.05)
    max(mag(U)) = 71.4741 in cell 37860 at location (0.00243313 0.000124751 0.05)

Time = 0.82

smoothSolver:  Solving for Ux, Initial residual = 6.39485e-05, Final residual = 5.13179e-06, No Iterations 4
smoothSolver:  Solving for Uy, Initial residual = 0.000920777, Final residual = 1.5272e-05, No Iterations 1
GAMG:  Solving for p, Initial residual = 5.35342e-05, Final residual = 4.42034e-06, No Iterations 6
time step continuity errors : sum local = 3.13111e-08, global = -6.90579e-09, cumulative = 6.61249e-06
ExecutionTime = 32.51 s  ClockTime = 35 s

fieldMinMax minMax write:
    min(mag(U)) = 0 in cell 36960 at location (0.000485708 0 0.05)
    max(mag(U)) = 71.4741 in cell 37860 at location (0.00243313 0.000124751 0.05)

Time = 0.83

smoothSolver:  Solving for Ux, Initial residual = 6.20064e-05, Final residual = 4.98704e-06, No Iterations 4
smoothSolver:  Solving for Uy, Initial residual = 0.000917585, Final residual = 1.49627e-05, No Iterations 1
GAMG:  Solving for p, Initial residual = 5.15508e-05, Final residual = 4.2686e-06, No Iterations 6
time step continuity errors : sum local = 3.03432e-08, global = -6.74078e-09, cumulative = 6.60575e-06
ExecutionTime = 32.97 s  ClockTime = 35 s

fieldMinMax minMax write:
    min(mag(U)) = 0 in cell 36960 at location (0.000485708 0 0.05)
    max(mag(U)) = 71.474 in cell 37860 at location (0.00243313 0.000124751 0.05)

Time = 0.84

smoothSolver:  Solving for Ux, Initial residual = 6.01161e-05, Final residual = 4.84645e-06, No Iterations 4
smoothSolver:  Solving for Uy, Initial residual = 0.000912889, Final residual = 1.4658e-05, No Iterations 1
GAMG:  Solving for p, Initial residual = 4.9701e-05, Final residual = 4.12533e-06, No Iterations 6
time step continuity errors : sum local = 2.94258e-08, global = -6.58611e-09, cumulative = 6.59917e-06
ExecutionTime = 33.44 s  ClockTime = 36 s

fieldMinMax minMax write:
    min(mag(U)) = 0 in cell 36960 at location (0.000485708 0 0.05)
    max(mag(U)) = 71.474 in cell 37860 at location (0.00243313 0.000124751 0.05)

Time = 0.85

smoothSolver:  Solving for Ux, Initial residual = 5.82774e-05, Final residual = 4.70987e-06, No Iterations 4
smoothSolver:  Solving for Uy, Initial residual = 0.000906687, Final residual = 1.43578e-05, No Iterations 1
GAMG:  Solving for p, Initial residual = 4.79788e-05, Final residual = 3.98977e-06, No Iterations 6
time step continuity errors : sum local = 2.85548e-08, global = -6.44057e-09, cumulative = 6.59272e-06
ExecutionTime = 33.86 s  ClockTime = 36 s

fieldMinMax minMax write:
    min(mag(U)) = 0 in cell 36960 at location (0.000485708 0 0.05)
    max(mag(U)) = 71.474 in cell 37860 at location (0.00243313 0.000124751 0.05)

Time = 0.86

smoothSolver:  Solving for Ux, Initial residual = 5.6489e-05, Final residual = 4.57716e-06, No Iterations 4
smoothSolver:  Solving for Uy, Initial residual = 0.00089892, Final residual = 1.40619e-05, No Iterations 1
GAMG:  Solving for p, Initial residual = 4.63349e-05, Final residual = 3.86173e-06, No Iterations 6
time step continuity errors : sum local = 2.77296e-08, global = -6.30219e-09, cumulative = 6.58642e-06
ExecutionTime = 34.3 s  ClockTime = 36 s

fieldMinMax minMax write:
    min(mag(U)) = 0 in cell 36960 at location (0.000485708 0 0.05)
    max(mag(U)) = 71.4739 in cell 37860 at location (0.00243313 0.000124751 0.05)

Time = 0.87

smoothSolver:  Solving for Ux, Initial residual = 5.475e-05, Final residual = 4.44819e-06, No Iterations 4
smoothSolver:  Solving for Uy, Initial residual = 0.000889557, Final residual = 1.37702e-05, No Iterations 1
GAMG:  Solving for p, Initial residual = 4.47677e-05, Final residual = 3.74114e-06, No Iterations 6
time step continuity errors : sum local = 2.69502e-08, global = -6.16906e-09, cumulative = 6.58025e-06
ExecutionTime = 34.7 s  ClockTime = 37 s

fieldMinMax minMax write:
    min(mag(U)) = 0 in cell 36960 at location (0.000485708 0 0.05)
    max(mag(U)) = 71.4739 in cell 37860 at location (0.00243313 0.000124751 0.05)

Time = 0.88

smoothSolver:  Solving for Ux, Initial residual = 5.30593e-05, Final residual = 4.32284e-06, No Iterations 4
smoothSolver:  Solving for Uy, Initial residual = 0.000878591, Final residual = 1.34824e-05, No Iterations 1
GAMG:  Solving for p, Initial residual = 4.32969e-05, Final residual = 3.62806e-06, No Iterations 6
time step continuity errors : sum local = 2.6218e-08, global = -6.03958e-09, cumulative = 6.57421e-06
ExecutionTime = 35.12 s  ClockTime = 37 s

fieldMinMax minMax write:
    min(mag(U)) = 0 in cell 36960 at location (0.000485708 0 0.05)
    max(mag(U)) = 71.4739 in cell 37860 at location (0.00243313 0.000124751 0.05)

Time = 0.89

smoothSolver:  Solving for Ux, Initial residual = 5.1416e-05, Final residual = 4.20097e-06, No Iterations 4
smoothSolver:  Solving for Uy, Initial residual = 0.000866018, Final residual = 1.31988e-05, No Iterations 1
GAMG:  Solving for p, Initial residual = 4.19487e-05, Final residual = 3.52206e-06, No Iterations 6
time step continuity errors : sum local = 2.55305e-08, global = -5.91262e-09, cumulative = 6.5683e-06
ExecutionTime = 35.53 s  ClockTime = 38 s

fieldMinMax minMax write:
    min(mag(U)) = 0 in cell 36960 at location (0.000485708 0 0.05)
    max(mag(U)) = 71.4739 in cell 37860 at location (0.00243313 0.000124751 0.05)

Time = 0.9

smoothSolver:  Solving for Ux, Initial residual = 4.98195e-05, Final residual = 4.08247e-06, No Iterations 4
smoothSolver:  Solving for Uy, Initial residual = 0.000851913, Final residual = 1.29193e-05, No Iterations 1
GAMG:  Solving for p, Initial residual = 4.06446e-05, Final residual = 3.42378e-06, No Iterations 6
time step continuity errors : sum local = 2.48932e-08, global = -5.7874e-09, cumulative = 6.56251e-06
ExecutionTime = 35.97 s  ClockTime = 38 s

fieldMinMax minMax write:
    min(mag(U)) = 0 in cell 36960 at location (0.000485708 0 0.05)
    max(mag(U)) = 71.4739 in cell 37860 at location (0.00243313 0.000124751 0.05)

Time = 0.91

smoothSolver:  Solving for Ux, Initial residual = 4.82691e-05, Final residual = 3.96725e-06, No Iterations 4
smoothSolver:  Solving for Uy, Initial residual = 0.000836447, Final residual = 1.2644e-05, No Iterations 1
GAMG:  Solving for p, Initial residual = 3.93789e-05, Final residual = 3.33231e-06, No Iterations 6
time step continuity errors : sum local = 2.42999e-08, global = -5.66339e-09, cumulative = 6.55685e-06
ExecutionTime = 36.4 s  ClockTime = 39 s

fieldMinMax minMax write:
    min(mag(U)) = 0 in cell 36960 at location (0.000485708 0 0.05)
    max(mag(U)) = 71.4738 in cell 37860 at location (0.00243313 0.000124751 0.05)

Time = 0.92

smoothSolver:  Solving for Ux, Initial residual = 4.67639e-05, Final residual = 3.85518e-06, No Iterations 4
smoothSolver:  Solving for Uy, Initial residual = 0.000819805, Final residual = 1.23729e-05, No Iterations 1
GAMG:  Solving for p, Initial residual = 3.81991e-05, Final residual = 3.24681e-06, No Iterations 6
time step continuity errors : sum local = 2.37453e-08, global = -5.54021e-09, cumulative = 6.55131e-06
ExecutionTime = 36.83 s  ClockTime = 39 s

fieldMinMax minMax write:
    min(mag(U)) = 0 in cell 36960 at location (0.000485708 0 0.05)
    max(mag(U)) = 71.4738 in cell 37860 at location (0.00243313 0.000124751 0.05)

Time = 0.93

smoothSolver:  Solving for Ux, Initial residual = 4.53034e-05, Final residual = 3.74618e-06, No Iterations 4
smoothSolver:  Solving for Uy, Initial residual = 0.000802168, Final residual = 1.2106e-05, No Iterations 1
GAMG:  Solving for p, Initial residual = 3.70795e-05, Final residual = 3.16653e-06, No Iterations 6
time step continuity errors : sum local = 2.32242e-08, global = -5.41753e-09, cumulative = 6.54589e-06
ExecutionTime = 37.25 s  ClockTime = 39 s

fieldMinMax minMax write:
    min(mag(U)) = 0 in cell 36960 at location (0.000485708 0 0.05)
    max(mag(U)) = 71.4738 in cell 37860 at location (0.00243313 0.000124751 0.05)

Time = 0.94

smoothSolver:  Solving for Ux, Initial residual = 4.38865e-05, Final residual = 3.64015e-06, No Iterations 4
smoothSolver:  Solving for Uy, Initial residual = 0.000783707, Final residual = 1.18434e-05, No Iterations 1
GAMG:  Solving for p, Initial residual = 3.60117e-05, Final residual = 3.09154e-06, No Iterations 6
time step continuity errors : sum local = 2.27377e-08, global = -5.29507e-09, cumulative = 6.5406e-06
ExecutionTime = 37.75 s  ClockTime = 40 s

fieldMinMax minMax write:
    min(mag(U)) = 0 in cell 36960 at location (0.000485708 0 0.05)
    max(mag(U)) = 71.4738 in cell 37860 at location (0.00243313 0.000124751 0.05)

Time = 0.95

smoothSolver:  Solving for Ux, Initial residual = 4.25129e-05, Final residual = 3.537e-06, No Iterations 4
smoothSolver:  Solving for Uy, Initial residual = 0.000764596, Final residual = 1.15851e-05, No Iterations 1
GAMG:  Solving for p, Initial residual = 3.49934e-05, Final residual = 3.02131e-06, No Iterations 6
time step continuity errors : sum local = 2.22823e-08, global = -5.17259e-09, cumulative = 6.53543e-06
ExecutionTime = 38.2 s  ClockTime = 40 s

fieldMinMax minMax write:
    min(mag(U)) = 0 in cell 36960 at location (0.000485708 0 0.05)
    max(mag(U)) = 71.4738 in cell 37860 at location (0.00243313 0.000124751 0.05)

Time = 0.96

smoothSolver:  Solving for Ux, Initial residual = 4.11825e-05, Final residual = 3.43663e-06, No Iterations 4
smoothSolver:  Solving for Uy, Initial residual = 0.000744998, Final residual = 1.13313e-05, No Iterations 1
GAMG:  Solving for p, Initial residual = 3.40134e-05, Final residual = 2.95524e-06, No Iterations 6
time step continuity errors : sum local = 2.1854e-08, global = -5.04994e-09, cumulative = 6.53038e-06
ExecutionTime = 38.65 s  ClockTime = 41 s

fieldMinMax minMax write:
    min(mag(U)) = 0 in cell 36960 at location (0.000485708 0 0.05)
    max(mag(U)) = 71.4738 in cell 37860 at location (0.00243313 0.000124751 0.05)

Time = 0.97

smoothSolver:  Solving for Ux, Initial residual = 3.98947e-05, Final residual = 3.33898e-06, No Iterations 4
smoothSolver:  Solving for Uy, Initial residual = 0.000725062, Final residual = 1.10819e-05, No Iterations 1
GAMG:  Solving for p, Initial residual = 3.3057e-05, Final residual = 2.89242e-06, No Iterations 6
time step continuity errors : sum local = 2.14464e-08, global = -4.92703e-09, cumulative = 6.52545e-06
ExecutionTime = 39.07 s  ClockTime = 41 s

fieldMinMax minMax write:
    min(mag(U)) = 0 in cell 36960 at location (0.000485708 0 0.05)
    max(mag(U)) = 71.4737 in cell 37860 at location (0.00243313 0.000124751 0.05)

Time = 0.98

smoothSolver:  Solving for Ux, Initial residual = 3.86485e-05, Final residual = 3.24395e-06, No Iterations 4
smoothSolver:  Solving for Uy, Initial residual = 0.000704912, Final residual = 1.08369e-05, No Iterations 1
GAMG:  Solving for p, Initial residual = 3.21285e-05, Final residual = 2.83254e-06, No Iterations 6
time step continuity errors : sum local = 2.10573e-08, global = -4.80389e-09, cumulative = 6.52064e-06
ExecutionTime = 39.52 s  ClockTime = 42 s

fieldMinMax minMax write:
    min(mag(U)) = 0 in cell 36960 at location (0.000485708 0 0.05)
    max(mag(U)) = 71.4737 in cell 37860 at location (0.00243313 0.000124751 0.05)

Time = 0.99

smoothSolver:  Solving for Ux, Initial residual = 3.74422e-05, Final residual = 3.15147e-06, No Iterations 4
smoothSolver:  Solving for Uy, Initial residual = 0.000684652, Final residual = 1.05964e-05, No Iterations 1
GAMG:  Solving for p, Initial residual = 3.12233e-05, Final residual = 2.77555e-06, No Iterations 6
time step continuity errors : sum local = 2.06867e-08, global = -4.68066e-09, cumulative = 6.51596e-06
ExecutionTime = 39.95 s  ClockTime = 42 s

fieldMinMax minMax write:
    min(mag(U)) = 0 in cell 36960 at location (0.000485708 0 0.05)
    max(mag(U)) = 71.4737 in cell 37860 at location (0.00243313 0.000124751 0.05)

Time = 1

smoothSolver:  Solving for Ux, Initial residual = 3.62744e-05, Final residual = 3.06148e-06, No Iterations 4
smoothSolver:  Solving for Uy, Initial residual = 0.000664367, Final residual = 1.03604e-05, No Iterations 1
GAMG:  Solving for p, Initial residual = 3.03632e-05, Final residual = 2.72095e-06, No Iterations 6
time step continuity errors : sum local = 2.03312e-08, global = -4.55755e-09, cumulative = 6.51141e-06
ExecutionTime = 40.93 s  ClockTime = 43 s

fieldMinMax minMax write:
    min(mag(U)) = 0 in cell 36960 at location (0.000485708 0 0.05)
    max(mag(U)) = 71.4737 in cell 37860 at location (0.00243313 0.000124751 0.05)

yPlus yPlus write:
    writing field yPlus
    patch topWall y+ : min = 0.0374862, max = 0.356143, average = 0.309575
    patch bottomWall y+ : min = 1.38124, max = 10.1403, average = 2.25561
writeCellCentres writeCellCentres write:
    writing cell-volumes field C to 1
    Writing the x component field of the cell-centres Cx to 1
    Writing the y component field of the cell-centres Cy to 1
    Writing the z component field of the cell-centres Cz to 1
wallShearStress wallShearStress write:
    writing field wallShearStress
    min/max(topWall) = (-1.72567e-09 -8.93444e-07 0), (7.81716e-09 -1.0343e-08 0)
    min/max(bottomWall) = (-32.5921 -0.486626 0), (-0.6047 0.0252338 0)
Time = 1.01

smoothSolver:  Solving for Ux, Initial residual = 3.51436e-05, Final residual = 2.97389e-06, No Iterations 4
smoothSolver:  Solving for Uy, Initial residual = 0.000644136, Final residual = 1.01288e-05, No Iterations 1
GAMG:  Solving for p, Initial residual = 2.955e-05, Final residual = 2.66842e-06, No Iterations 6
time step continuity errors : sum local = 1.99884e-08, global = -4.4349e-09, cumulative = 6.50697e-06
ExecutionTime = 42.04 s  ClockTime = 45 s

fieldMinMax minMax write:
    min(mag(U)) = 0 in cell 36960 at location (0.000485708 0 0.05)
    max(mag(U)) = 71.4737 in cell 37860 at location (0.00243313 0.000124751 0.05)

Time = 1.02

smoothSolver:  Solving for Ux, Initial residual = 3.40487e-05, Final residual = 2.88863e-06, No Iterations 4
smoothSolver:  Solving for Uy, Initial residual = 0.000624023, Final residual = 9.90155e-06, No Iterations 1
GAMG:  Solving for p, Initial residual = 2.87622e-05, Final residual = 2.61801e-06, No Iterations 6
time step continuity errors : sum local = 1.96591e-08, global = -4.3131e-09, cumulative = 6.50266e-06
ExecutionTime = 42.55 s  ClockTime = 45 s

fieldMinMax minMax write:
    min(mag(U)) = 0 in cell 36960 at location (0.000485708 0 0.05)
    max(mag(U)) = 71.4737 in cell 37860 at location (0.00243313 0.000124751 0.05)

Time = 1.03

smoothSolver:  Solving for Ux, Initial residual = 3.29884e-05, Final residual = 2.80564e-06, No Iterations 4
smoothSolver:  Solving for Uy, Initial residual = 0.000604083, Final residual = 9.67865e-06, No Iterations 1
GAMG:  Solving for p, Initial residual = 2.79942e-05, Final residual = 2.56972e-06, No Iterations 6
time step continuity errors : sum local = 1.93432e-08, global = -4.19262e-09, cumulative = 6.49847e-06
ExecutionTime = 42.96 s  ClockTime = 46 s

fieldMinMax minMax write:
    min(mag(U)) = 0 in cell 36960 at location (0.000485708 0 0.05)
    max(mag(U)) = 71.4737 in cell 37860 at location (0.00243313 0.000124751 0.05)

Time = 1.04

smoothSolver:  Solving for Ux, Initial residual = 3.19617e-05, Final residual = 2.72485e-06, No Iterations 4
smoothSolver:  Solving for Uy, Initial residual = 0.000584368, Final residual = 9.46003e-06, No Iterations 1
GAMG:  Solving for p, Initial residual = 2.72486e-05, Final residual = 2.52356e-06, No Iterations 6
time step continuity errors : sum local = 1.90411e-08, global = -4.07396e-09, cumulative = 6.49439e-06
ExecutionTime = 43.42 s  ClockTime = 46 s

fieldMinMax minMax write:
    min(mag(U)) = 0 in cell 36960 at location (0.000485708 0 0.05)
    max(mag(U)) = 71.4737 in cell 37860 at location (0.00243313 0.000124751 0.05)

Time = 1.05

smoothSolver:  Solving for Ux, Initial residual = 3.09675e-05, Final residual = 2.6462e-06, No Iterations 4
smoothSolver:  Solving for Uy, Initial residual = 0.000564923, Final residual = 9.2456e-06, No Iterations 1
GAMG:  Solving for p, Initial residual = 2.65367e-05, Final residual = 2.47933e-06, No Iterations 6
time step continuity errors : sum local = 1.87514e-08, global = -3.95768e-09, cumulative = 6.49043e-06
ExecutionTime = 43.91 s  ClockTime = 47 s

fieldMinMax minMax write:
    min(mag(U)) = 0 in cell 36960 at location (0.000485708 0 0.05)
    max(mag(U)) = 71.4737 in cell 37860 at location (0.00243313 0.000124751 0.05)

Time = 1.06

smoothSolver:  Solving for Ux, Initial residual = 3.00048e-05, Final residual = 2.56964e-06, No Iterations 4
smoothSolver:  Solving for Uy, Initial residual = 0.000545792, Final residual = 9.03531e-06, No Iterations 1
GAMG:  Solving for p, Initial residual = 2.58542e-05, Final residual = 2.43703e-06, No Iterations 6
time step continuity errors : sum local = 1.84742e-08, global = -3.8443e-09, cumulative = 6.48659e-06
ExecutionTime = 44.33 s  ClockTime = 47 s

fieldMinMax minMax write:
    min(mag(U)) = 0 in cell 36960 at location (0.000485708 0 0.05)
    max(mag(U)) = 71.4737 in cell 37860 at location (0.00243313 0.000124751 0.05)

Time = 1.07

smoothSolver:  Solving for Ux, Initial residual = 2.90729e-05, Final residual = 2.4951e-06, No Iterations 4
smoothSolver:  Solving for Uy, Initial residual = 0.000527014, Final residual = 8.82911e-06, No Iterations 1
GAMG:  Solving for p, Initial residual = 2.51933e-05, Final residual = 2.39651e-06, No Iterations 6
time step continuity errors : sum local = 1.82085e-08, global = -3.73435e-09, cumulative = 6.48286e-06
ExecutionTime = 44.73 s  ClockTime = 48 s

fieldMinMax minMax write:
    min(mag(U)) = 0 in cell 36960 at location (0.000485708 0 0.05)
    max(mag(U)) = 71.4737 in cell 37860 at location (0.00243313 0.000124751 0.05)

Time = 1.08

smoothSolver:  Solving for Ux, Initial residual = 2.81707e-05, Final residual = 2.42254e-06, No Iterations 4
smoothSolver:  Solving for Uy, Initial residual = 0.000508624, Final residual = 8.62697e-06, No Iterations 1
GAMG:  Solving for p, Initial residual = 2.45547e-05, Final residual = 2.35748e-06, No Iterations 6
time step continuity errors : sum local = 1.79523e-08, global = -3.62829e-09, cumulative = 6.47923e-06
ExecutionTime = 45.15 s  ClockTime = 48 s

fieldMinMax minMax write:
    min(mag(U)) = 0 in cell 36960 at location (0.000485708 0 0.05)
    max(mag(U)) = 71.4737 in cell 37860 at location (0.00243313 0.000124751 0.05)

Time = 1.09

smoothSolver:  Solving for Ux, Initial residual = 2.72976e-05, Final residual = 2.3519e-06, No Iterations 4
smoothSolver:  Solving for Uy, Initial residual = 0.00049066, Final residual = 8.4288e-06, No Iterations 1
GAMG:  Solving for p, Initial residual = 2.39418e-05, Final residual = 2.31964e-06, No Iterations 6
time step continuity errors : sum local = 1.77033e-08, global = -3.52653e-09, cumulative = 6.4757e-06
ExecutionTime = 45.59 s  ClockTime = 49 s

fieldMinMax minMax write:
    min(mag(U)) = 0 in cell 36960 at location (0.000485708 0 0.05)
    max(mag(U)) = 71.4737 in cell 37860 at location (0.00243313 0.000124751 0.05)

Time = 1.1

smoothSolver:  Solving for Ux, Initial residual = 2.64526e-05, Final residual = 2.28314e-06, No Iterations 4
smoothSolver:  Solving for Uy, Initial residual = 0.000473157, Final residual = 8.23456e-06, No Iterations 1
GAMG:  Solving for p, Initial residual = 2.33534e-05, Final residual = 2.28286e-06, No Iterations 6
time step continuity errors : sum local = 1.74607e-08, global = -3.42939e-09, cumulative = 6.47227e-06
ExecutionTime = 46.01 s  ClockTime = 49 s

fieldMinMax minMax write:
    min(mag(U)) = 0 in cell 36960 at location (0.000485708 0 0.05)
    max(mag(U)) = 71.4737 in cell 37860 at location (0.00243313 0.000124751 0.05)

Time = 1.11

smoothSolver:  Solving for Ux, Initial residual = 2.56351e-05, Final residual = 2.21621e-06, No Iterations 4
smoothSolver:  Solving for Uy, Initial residual = 0.000456146, Final residual = 8.04421e-06, No Iterations 1
GAMG:  Solving for p, Initial residual = 2.27927e-05, Final residual = 2.24714e-06, No Iterations 6
time step continuity errors : sum local = 1.72245e-08, global = -3.33711e-09, cumulative = 6.46893e-06
ExecutionTime = 46.43 s  ClockTime = 49 s

fieldMinMax minMax write:
    min(mag(U)) = 0 in cell 36960 at location (0.000485708 0 0.05)
    max(mag(U)) = 71.4737 in cell 37860 at location (0.00243313 0.000124751 0.05)

Time = 1.12

smoothSolver:  Solving for Ux, Initial residual = 2.48445e-05, Final residual = 2.15106e-06, No Iterations 4
smoothSolver:  Solving for Uy, Initial residual = 0.000439655, Final residual = 7.85771e-06, No Iterations 1
GAMG:  Solving for p, Initial residual = 2.2254e-05, Final residual = 2.21242e-06, No Iterations 6
time step continuity errors : sum local = 1.69943e-08, global = -3.24983e-09, cumulative = 6.46568e-06
ExecutionTime = 46.87 s  ClockTime = 50 s

fieldMinMax minMax write:
    min(mag(U)) = 0 in cell 36960 at location (0.000485708 0 0.05)
    max(mag(U)) = 71.4737 in cell 37860 at location (0.00243313 0.000124751 0.05)

Time = 1.13

smoothSolver:  Solving for Ux, Initial residual = 2.40803e-05, Final residual = 2.08764e-06, No Iterations 4
smoothSolver:  Solving for Uy, Initial residual = 0.000423707, Final residual = 7.67502e-06, No Iterations 1
GAMG:  Solving for p, Initial residual = 2.17359e-05, Final residual = 2.01028e-06, No Iterations 7
time step continuity errors : sum local = 1.54739e-08, global = 5.51509e-09, cumulative = 6.4712e-06
ExecutionTime = 47.32 s  ClockTime = 50 s

fieldMinMax minMax write:
    min(mag(U)) = 0 in cell 36960 at location (0.000485708 0 0.05)
    max(mag(U)) = 71.4737 in cell 37860 at location (0.00243313 0.000124751 0.05)

Time = 1.14

smoothSolver:  Solving for Ux, Initial residual = 2.33755e-05, Final residual = 2.02591e-06, No Iterations 4
smoothSolver:  Solving for Uy, Initial residual = 0.000410005, Final residual = 7.50183e-06, No Iterations 1
GAMG:  Solving for p, Initial residual = 2.10134e-05, Final residual = 1.90978e-06, No Iterations 6
time step continuity errors : sum local = 1.47328e-08, global = -2.9713e-09, cumulative = 6.46823e-06
ExecutionTime = 47.77 s  ClockTime = 51 s

fieldMinMax minMax write:
    min(mag(U)) = 0 in cell 36960 at location (0.000485708 0 0.05)
    max(mag(U)) = 71.4737 in cell 37860 at location (0.00243313 0.000124751 0.05)

Time = 1.15

smoothSolver:  Solving for Ux, Initial residual = 2.25941e-05, Final residual = 1.96587e-06, No Iterations 4
smoothSolver:  Solving for Uy, Initial residual = 0.000392283, Final residual = 7.31605e-06, No Iterations 1
GAMG:  Solving for p, Initial residual = 2.0662e-05, Final residual = 1.93909e-06, No Iterations 7
time step continuity errors : sum local = 1.49851e-08, global = 5.3297e-09, cumulative = 6.47356e-06
ExecutionTime = 48.22 s  ClockTime = 51 s

fieldMinMax minMax write:
    min(mag(U)) = 0 in cell 36960 at location (0.000485708 0 0.05)
    max(mag(U)) = 71.4737 in cell 37860 at location (0.00243313 0.000124751 0.05)

Time = 1.16

smoothSolver:  Solving for Ux, Initial residual = 2.19705e-05, Final residual = 1.90739e-06, No Iterations 4
smoothSolver:  Solving for Uy, Initial residual = 0.000380705, Final residual = 7.15436e-06, No Iterations 1
GAMG:  Solving for p, Initial residual = 1.998e-05, Final residual = 1.84589e-06, No Iterations 6
time step continuity errors : sum local = 1.42969e-08, global = -2.80034e-09, cumulative = 6.47076e-06
ExecutionTime = 48.64 s  ClockTime = 52 s

fieldMinMax minMax write:
    min(mag(U)) = 0 in cell 36960 at location (0.000485708 0 0.05)
    max(mag(U)) = 71.4736 in cell 37860 at location (0.00243313 0.000124751 0.05)

Time = 1.17

smoothSolver:  Solving for Ux, Initial residual = 2.12425e-05, Final residual = 1.85052e-06, No Iterations 4
smoothSolver:  Solving for Uy, Initial residual = 0.000364511, Final residual = 6.97729e-06, No Iterations 1
GAMG:  Solving for p, Initial residual = 1.9705e-05, Final residual = 1.84198e-06, No Iterations 7
time step continuity errors : sum local = 1.42912e-08, global = 5.08513e-09, cumulative = 6.47584e-06
ExecutionTime = 49.09 s  ClockTime = 52 s

fieldMinMax minMax write:
    min(mag(U)) = 0 in cell 36960 at location (0.000485708 0 0.05)
    max(mag(U)) = 71.4736 in cell 37860 at location (0.00243313 0.000124751 0.05)

Time = 1.18

smoothSolver:  Solving for Ux, Initial residual = 2.06604e-05, Final residual = 1.79513e-06, No Iterations 4
smoothSolver:  Solving for Uy, Initial residual = 0.000354039, Final residual = 6.82247e-06, No Iterations 1
GAMG:  Solving for p, Initial residual = 1.90251e-05, Final residual = 1.77778e-06, No Iterations 6
time step continuity errors : sum local = 1.38228e-08, global = -2.63607e-09, cumulative = 6.47321e-06
ExecutionTime = 49.51 s  ClockTime = 53 s

fieldMinMax minMax write:
    min(mag(U)) = 0 in cell 36960 at location (0.000485708 0 0.05)
    max(mag(U)) = 71.4736 in cell 37860 at location (0.00243313 0.000124751 0.05)

Time = 1.19

smoothSolver:  Solving for Ux, Initial residual = 1.99798e-05, Final residual = 1.74128e-06, No Iterations 4
smoothSolver:  Solving for Uy, Initial residual = 0.000339083, Final residual = 6.65283e-06, No Iterations 1
GAMG:  Solving for p, Initial residual = 1.88294e-05, Final residual = 1.76773e-06, No Iterations 7
[...]
ExecutionTime = 1473.1 s  ClockTime = 1627 s

fieldMinMax minMax write:
    min(mag(U)) = 0 in cell 36960 at location (0.000485708 0 0.05)
    max(mag(U)) = 71.4736 in cell 37860 at location (0.00243313 0.000124751 0.05)

Time = 59.72

smoothSolver:  Solving for Ux, Initial residual = 5.63259e-11, Final residual = 5.63259e-11, No Iterations 0
smoothSolver:  Solving for Uy, Initial residual = 8.93079e-11, Final residual = 8.93079e-11, No Iterations 0
GAMG:  Solving for p, Initial residual = 7.11137e-10, Final residual = 4.34254e-13, No Iterations 1
time step continuity errors : sum local = 1.54414e-14, global = -2.18722e-17, cumulative = 6.61718e-06
ExecutionTime = 1473.28 s  ClockTime = 1627 s

fieldMinMax minMax write:
    min(mag(U)) = 0 in cell 36960 at location (0.000485708 0 0.05)
    max(mag(U)) = 71.4736 in cell 37860 at location (0.00243313 0.000124751 0.05)

Time = 59.73

smoothSolver:  Solving for Ux, Initial residual = 7.79204e-11, Final residual = 7.79204e-11, No Iterations 0
smoothSolver:  Solving for Uy, Initial residual = 1.35066e-10, Final residual = 1.43858e-12, No Iterations 1
GAMG:  Solving for p, Initial residual = 3.84512e-09, Final residual = 8.33409e-13, No Iterations 1
time step continuity errors : sum local = 1.86011e-14, global = 1.0374e-16, cumulative = 6.61718e-06
ExecutionTime = 1473.46 s  ClockTime = 1627 s

fieldMinMax minMax write:
    min(mag(U)) = 0 in cell 36960 at location (0.000485708 0 0.05)
    max(mag(U)) = 71.4736 in cell 37860 at location (0.00243313 0.000124751 0.05)

Time = 59.74

smoothSolver:  Solving for Ux, Initial residual = 1.08173e-10, Final residual = 1.25768e-12, No Iterations 1
smoothSolver:  Solving for Uy, Initial residual = 1.39913e-10, Final residual = 1.5091e-12, No Iterations 1
GAMG:  Solving for p, Initial residual = 8.16336e-10, Final residual = 4.90328e-13, No Iterations 1
time step continuity errors : sum local = 1.57236e-14, global = 1.49987e-17, cumulative = 6.61718e-06
ExecutionTime = 1473.64 s  ClockTime = 1627 s

fieldMinMax minMax write:
    min(mag(U)) = 0 in cell 36960 at location (0.000485708 0 0.05)
    max(mag(U)) = 71.4736 in cell 37860 at location (0.00243313 0.000124751 0.05)

Time = 59.75

smoothSolver:  Solving for Ux, Initial residual = 5.69122e-11, Final residual = 5.69122e-11, No Iterations 0
smoothSolver:  Solving for Uy, Initial residual = 8.82398e-11, Final residual = 8.82398e-11, No Iterations 0
GAMG:  Solving for p, Initial residual = 7.87926e-10, Final residual = 4.22846e-13, No Iterations 1
time step continuity errors : sum local = 1.53303e-14, global = 1.41693e-17, cumulative = 6.61718e-06
ExecutionTime = 1473.81 s  ClockTime = 1628 s

fieldMinMax minMax write:
    min(mag(U)) = 0 in cell 36960 at location (0.000485708 0 0.05)
    max(mag(U)) = 71.4736 in cell 37860 at location (0.00243313 0.000124751 0.05)

Time = 59.76

smoothSolver:  Solving for Ux, Initial residual = 7.94064e-11, Final residual = 7.94064e-11, No Iterations 0
smoothSolver:  Solving for Uy, Initial residual = 1.37689e-10, Final residual = 1.4422e-12, No Iterations 1
GAMG:  Solving for p, Initial residual = 3.96408e-09, Final residual = 8.98522e-13, No Iterations 1
time step continuity errors : sum local = 1.90888e-14, global = -2.86258e-16, cumulative = 6.61718e-06
ExecutionTime = 1473.98 s  ClockTime = 1628 s

fieldMinMax minMax write:
    min(mag(U)) = 0 in cell 36960 at location (0.000485708 0 0.05)
    max(mag(U)) = 71.4736 in cell 37860 at location (0.00243313 0.000124751 0.05)

Time = 59.77

smoothSolver:  Solving for Ux, Initial residual = 1.09564e-10, Final residual = 1.2753e-12, No Iterations 1
smoothSolver:  Solving for Uy, Initial residual = 1.44121e-10, Final residual = 1.53705e-12, No Iterations 1
GAMG:  Solving for p, Initial residual = 8.2695e-10, Final residual = 5.50892e-13, No Iterations 1
time step continuity errors : sum local = 1.6173e-14, global = -1.90492e-17, cumulative = 6.61718e-06
ExecutionTime = 1474.15 s  ClockTime = 1628 s

fieldMinMax minMax write:
    min(mag(U)) = 0 in cell 36960 at location (0.000485708 0 0.05)
    max(mag(U)) = 71.4736 in cell 37860 at location (0.00243313 0.000124751 0.05)

Time = 59.78

smoothSolver:  Solving for Ux, Initial residual = 5.7517e-11, Final residual = 5.7517e-11, No Iterations 0
smoothSolver:  Solving for Uy, Initial residual = 8.99872e-11, Final residual = 8.99872e-11, No Iterations 0
GAMG:  Solving for p, Initial residual = 7.37874e-10, Final residual = 4.59692e-13, No Iterations 1
time step continuity errors : sum local = 1.5537e-14, global = 2.23298e-17, cumulative = 6.61718e-06
ExecutionTime = 1474.32 s  ClockTime = 1628 s

fieldMinMax minMax write:
    min(mag(U)) = 0 in cell 36960 at location (0.000485708 0 0.05)
    max(mag(U)) = 71.4736 in cell 37860 at location (0.00243313 0.000124751 0.05)

Time = 59.79

smoothSolver:  Solving for Ux, Initial residual = 7.96734e-11, Final residual = 7.96734e-11, No Iterations 0
smoothSolver:  Solving for Uy, Initial residual = 1.37042e-10, Final residual = 1.45628e-12, No Iterations 1
GAMG:  Solving for p, Initial residual = 3.97022e-09, Final residual = 9.51214e-13, No Iterations 1
time step continuity errors : sum local = 1.94401e-14, global = 2.70953e-16, cumulative = 6.61718e-06
ExecutionTime = 1474.47 s  ClockTime = 1628 s

fieldMinMax minMax write:
    min(mag(U)) = 0 in cell 36960 at location (0.000485708 0 0.05)
    max(mag(U)) = 71.4736 in cell 37860 at location (0.00243313 0.000124751 0.05)

Time = 59.8

smoothSolver:  Solving for Ux, Initial residual = 1.11333e-10, Final residual = 1.28842e-12, No Iterations 1
smoothSolver:  Solving for Uy, Initial residual = 1.44702e-10, Final residual = 1.54102e-12, No Iterations 1
GAMG:  Solving for p, Initial residual = 8.66554e-10, Final residual = 5.78351e-13, No Iterations 1
time step continuity errors : sum local = 1.63826e-14, global = -7.73442e-17, cumulative = 6.61718e-06
ExecutionTime = 1474.64 s  ClockTime = 1629 s

fieldMinMax minMax write:
    min(mag(U)) = 0 in cell 36960 at location (0.000485708 0 0.05)
    max(mag(U)) = 71.4736 in cell 37860 at location (0.00243313 0.000124751 0.05)

Time = 59.81

smoothSolver:  Solving for Ux, Initial residual = 5.86051e-11, Final residual = 5.86051e-11, No Iterations 0
smoothSolver:  Solving for Uy, Initial residual = 9.22212e-11, Final residual = 9.22212e-11, No Iterations 0
GAMG:  Solving for p, Initial residual = 7.81283e-10, Final residual = 4.8826e-13, No Iterations 1
time step continuity errors : sum local = 1.57752e-14, global = -6.87637e-17, cumulative = 6.61718e-06
ExecutionTime = 1474.8 s  ClockTime = 1629 s

fieldMinMax minMax write:
    min(mag(U)) = 0 in cell 36960 at location (0.000485708 0 0.05)
    max(mag(U)) = 71.4736 in cell 37860 at location (0.00243313 0.000124751 0.05)

Time = 59.82

smoothSolver:  Solving for Ux, Initial residual = 8.09837e-11, Final residual = 8.09837e-11, No Iterations 0
smoothSolver:  Solving for Uy, Initial residual = 1.41299e-10, Final residual = 1.47817e-12, No Iterations 1
GAMG:  Solving for p, Initial residual = 4.00699e-09, Final residual = 9.59882e-13, No Iterations 1
time step continuity errors : sum local = 1.95752e-14, global = -2.54933e-16, cumulative = 6.61718e-06
ExecutionTime = 1474.98 s  ClockTime = 1629 s

fieldMinMax minMax write:
    min(mag(U)) = 0 in cell 36960 at location (0.000485708 0 0.05)
    max(mag(U)) = 71.4736 in cell 37860 at location (0.00243313 0.000124751 0.05)

Time = 59.83

smoothSolver:  Solving for Ux, Initial residual = 1.1188e-10, Final residual = 1.30377e-12, No Iterations 1
smoothSolver:  Solving for Uy, Initial residual = 1.45982e-10, Final residual = 1.57456e-12, No Iterations 1
GAMG:  Solving for p, Initial residual = 8.38157e-10, Final residual = 5.59585e-13, No Iterations 1
time step continuity errors : sum local = 1.6295e-14, global = 3.20759e-17, cumulative = 6.61718e-06
ExecutionTime = 1475.15 s  ClockTime = 1629 s

fieldMinMax minMax write:
    min(mag(U)) = 0 in cell 36960 at location (0.000485708 0 0.05)
    max(mag(U)) = 71.4736 in cell 37860 at location (0.00243313 0.000124751 0.05)

Time = 59.84

smoothSolver:  Solving for Ux, Initial residual = 5.87246e-11, Final residual = 5.87246e-11, No Iterations 0
smoothSolver:  Solving for Uy, Initial residual = 9.14087e-11, Final residual = 9.14087e-11, No Iterations 0
GAMG:  Solving for p, Initial residual = 7.86245e-10, Final residual = 4.74235e-13, No Iterations 1
time step continuity errors : sum local = 1.56971e-14, global = 5.54234e-17, cumulative = 6.61718e-06
ExecutionTime = 1475.32 s  ClockTime = 1629 s

fieldMinMax minMax write:
    min(mag(U)) = 0 in cell 36960 at location (0.000485708 0 0.05)
    max(mag(U)) = 71.4736 in cell 37860 at location (0.00243313 0.000124751 0.05)

Time = 59.85

smoothSolver:  Solving for Ux, Initial residual = 8.18567e-11, Final residual = 8.18567e-11, No Iterations 0
smoothSolver:  Solving for Uy, Initial residual = 1.413e-10, Final residual = 1.48744e-12, No Iterations 1
GAMG:  Solving for p, Initial residual = 4.08564e-09, Final residual = 9.47945e-13, No Iterations 1
time step continuity errors : sum local = 1.95554e-14, global = 5.59753e-17, cumulative = 6.61718e-06
ExecutionTime = 1475.52 s  ClockTime = 1629 s

fieldMinMax minMax write:
    min(mag(U)) = 0 in cell 36960 at location (0.000485708 0 0.05)
    max(mag(U)) = 71.4736 in cell 37860 at location (0.00243313 0.000124751 0.05)

Time = 59.86

smoothSolver:  Solving for Ux, Initial residual = 1.14117e-10, Final residual = 1.31431e-12, No Iterations 1
smoothSolver:  Solving for Uy, Initial residual = 1.49948e-10, Final residual = 1.57658e-12, No Iterations 1
GAMG:  Solving for p, Initial residual = 8.78562e-10, Final residual = 5.33472e-13, No Iterations 1
time step continuity errors : sum local = 1.60593e-14, global = 1.00697e-17, cumulative = 6.61718e-06
ExecutionTime = 1475.74 s  ClockTime = 1630 s

fieldMinMax minMax write:
    min(mag(U)) = 0 in cell 36960 at location (0.000485708 0 0.05)
    max(mag(U)) = 71.4736 in cell 37860 at location (0.00243313 0.000124751 0.05)

Time = 59.87

smoothSolver:  Solving for Ux, Initial residual = 5.98663e-11, Final residual = 5.98663e-11, No Iterations 0
smoothSolver:  Solving for Uy, Initial residual = 9.45744e-11, Final residual = 9.45744e-11, No Iterations 0
GAMG:  Solving for p, Initial residual = 7.82335e-10, Final residual = 4.44614e-13, No Iterations 1
time step continuity errors : sum local = 1.54915e-14, global = -3.36861e-17, cumulative = 6.61718e-06
ExecutionTime = 1475.92 s  ClockTime = 1630 s

fieldMinMax minMax write:
    min(mag(U)) = 0 in cell 36960 at location (0.000485708 0 0.05)
    max(mag(U)) = 71.4736 in cell 37860 at location (0.00243313 0.000124751 0.05)

Time = 59.88

smoothSolver:  Solving for Ux, Initial residual = 8.25466e-11, Final residual = 8.25466e-11, No Iterations 0
smoothSolver:  Solving for Uy, Initial residual = 1.4331e-10, Final residual = 1.51702e-12, No Iterations 1
GAMG:  Solving for p, Initial residual = 4.12504e-09, Final residual = 9.18422e-13, No Iterations 1
time step continuity errors : sum local = 1.92771e-14, global = 1.6652e-16, cumulative = 6.61718e-06
ExecutionTime = 1476.13 s  ClockTime = 1630 s

fieldMinMax minMax write:
    min(mag(U)) = 0 in cell 36960 at location (0.000485708 0 0.05)
    max(mag(U)) = 71.4736 in cell 37860 at location (0.00243313 0.000124751 0.05)

Time = 59.89

smoothSolver:  Solving for Ux, Initial residual = 1.14114e-10, Final residual = 1.33008e-12, No Iterations 1
smoothSolver:  Solving for Uy, Initial residual = 1.48722e-10, Final residual = 1.6049e-12, No Iterations 1
GAMG:  Solving for p, Initial residual = 8.79046e-10, Final residual = 5.25879e-13, No Iterations 1
time step continuity errors : sum local = 1.60399e-14, global = -8.34943e-19, cumulative = 6.61718e-06
ExecutionTime = 1476.37 s  ClockTime = 1630 s

fieldMinMax minMax write:
    min(mag(U)) = 0 in cell 36960 at location (0.000485708 0 0.05)
    max(mag(U)) = 71.4736 in cell 37860 at location (0.00243313 0.000124751 0.05)

Time = 59.9

smoothSolver:  Solving for Ux, Initial residual = 6.01119e-11, Final residual = 6.01119e-11, No Iterations 0
smoothSolver:  Solving for Uy, Initial residual = 9.40606e-11, Final residual = 9.40606e-11, No Iterations 0
GAMG:  Solving for p, Initial residual = 8.0612e-10, Final residual = 4.46206e-13, No Iterations 1
time step continuity errors : sum local = 1.54998e-14, global = 4.85757e-17, cumulative = 6.61718e-06
ExecutionTime = 1476.56 s  ClockTime = 1630 s

fieldMinMax minMax write:
    min(mag(U)) = 0 in cell 36960 at location (0.000485708 0 0.05)
    max(mag(U)) = 71.4736 in cell 37860 at location (0.00243313 0.000124751 0.05)

Time = 59.91

smoothSolver:  Solving for Ux, Initial residual = 8.42247e-11, Final residual = 8.42247e-11, No Iterations 0
smoothSolver:  Solving for Uy, Initial residual = 1.46824e-10, Final residual = 1.51934e-12, No Iterations 1
GAMG:  Solving for p, Initial residual = 4.15676e-09, Final residual = 9.86317e-13, No Iterations 1
time step continuity errors : sum local = 1.97464e-14, global = -2.87184e-16, cumulative = 6.61718e-06
ExecutionTime = 1476.76 s  ClockTime = 1631 s

fieldMinMax minMax write:
    min(mag(U)) = 0 in cell 36960 at location (0.000485708 0 0.05)
    max(mag(U)) = 71.4736 in cell 37860 at location (0.00243313 0.000124751 0.05)

Time = 59.92

smoothSolver:  Solving for Ux, Initial residual = 1.1641e-10, Final residual = 1.34424e-12, No Iterations 1
smoothSolver:  Solving for Uy, Initial residual = 1.53461e-10, Final residual = 1.61508e-12, No Iterations 1
GAMG:  Solving for p, Initial residual = 8.84692e-10, Final residual = 5.75047e-13, No Iterations 1
time step continuity errors : sum local = 1.64041e-14, global = 4.47726e-17, cumulative = 6.61718e-06
ExecutionTime = 1476.96 s  ClockTime = 1631 s

fieldMinMax minMax write:
    min(mag(U)) = 0 in cell 36960 at location (0.000485708 0 0.05)
    max(mag(U)) = 71.4736 in cell 37860 at location (0.00243313 0.000124751 0.05)

Time = 59.93

smoothSolver:  Solving for Ux, Initial residual = 6.10097e-11, Final residual = 6.10097e-11, No Iterations 0
smoothSolver:  Solving for Uy, Initial residual = 9.60306e-11, Final residual = 9.60306e-11, No Iterations 0
GAMG:  Solving for p, Initial residual = 8.07148e-10, Final residual = 4.86757e-13, No Iterations 1
time step continuity errors : sum local = 1.57607e-14, global = 1.40059e-18, cumulative = 6.61718e-06
ExecutionTime = 1477.13 s  ClockTime = 1631 s

fieldMinMax minMax write:
    min(mag(U)) = 0 in cell 36960 at location (0.000485708 0 0.05)
    max(mag(U)) = 71.4736 in cell 37860 at location (0.00243313 0.000124751 0.05)

Time = 59.94

smoothSolver:  Solving for Ux, Initial residual = 8.40442e-11, Final residual = 8.40442e-11, No Iterations 0
smoothSolver:  Solving for Uy, Initial residual = 1.45793e-10, Final residual = 1.54759e-12, No Iterations 1
GAMG:  Solving for p, Initial residual = 4.24015e-09, Final residual = 1.05242e-12, No Iterations 1
time step continuity errors : sum local = 2.02966e-14, global = 3.16768e-16, cumulative = 6.61718e-06
ExecutionTime = 1477.32 s  ClockTime = 1631 s

fieldMinMax minMax write:
    min(mag(U)) = 0 in cell 36960 at location (0.000485708 0 0.05)
    max(mag(U)) = 71.4736 in cell 37860 at location (0.00243313 0.000124751 0.05)

Time = 59.95

smoothSolver:  Solving for Ux, Initial residual = 1.17851e-10, Final residual = 1.35928e-12, No Iterations 1
smoothSolver:  Solving for Uy, Initial residual = 1.54164e-10, Final residual = 1.63512e-12, No Iterations 1
GAMG:  Solving for p, Initial residual = 9.05956e-10, Final residual = 6.15205e-13, No Iterations 1
time step continuity errors : sum local = 1.6652e-14, global = 3.28523e-17, cumulative = 6.61718e-06
ExecutionTime = 1477.52 s  ClockTime = 1631 s

fieldMinMax minMax write:
    min(mag(U)) = 0 in cell 36960 at location (0.000485708 0 0.05)
    max(mag(U)) = 71.4736 in cell 37860 at location (0.00243313 0.000124751 0.05)

Time = 59.96

smoothSolver:  Solving for Ux, Initial residual = 6.21532e-11, Final residual = 6.21532e-11, No Iterations 0
smoothSolver:  Solving for Uy, Initial residual = 9.8122e-11, Final residual = 9.8122e-11, No Iterations 0
GAMG:  Solving for p, Initial residual = 8.23322e-10, Final residual = 5.0682e-13, No Iterations 1
time step continuity errors : sum local = 1.59811e-14, global = -4.73947e-17, cumulative = 6.61718e-06
ExecutionTime = 1477.71 s  ClockTime = 1632 s

fieldMinMax minMax write:
    min(mag(U)) = 0 in cell 36960 at location (0.000485708 0 0.05)
    max(mag(U)) = 71.4736 in cell 37860 at location (0.00243313 0.000124751 0.05)

Time = 59.97

smoothSolver:  Solving for Ux, Initial residual = 8.604e-11, Final residual = 8.604e-11, No Iterations 0
smoothSolver:  Solving for Uy, Initial residual = 1.50612e-10, Final residual = 1.55196e-12, No Iterations 1
GAMG:  Solving for p, Initial residual = 4.23608e-09, Final residual = 1.04378e-12, No Iterations 1
time step continuity errors : sum local = 2.03002e-14, global = -2.10645e-16, cumulative = 6.61718e-06
ExecutionTime = 1477.9 s  ClockTime = 1632 s

fieldMinMax minMax write:
    min(mag(U)) = 0 in cell 36960 at location (0.000485708 0 0.05)
    max(mag(U)) = 71.4736 in cell 37860 at location (0.00243313 0.000124751 0.05)

Time = 59.98

smoothSolver:  Solving for Ux, Initial residual = 1.18359e-10, Final residual = 1.37646e-12, No Iterations 1
smoothSolver:  Solving for Uy, Initial residual = 1.55542e-10, Final residual = 1.66393e-12, No Iterations 1
GAMG:  Solving for p, Initial residual = 9.05267e-10, Final residual = 6.03536e-13, No Iterations 1
time step continuity errors : sum local = 1.66148e-14, global = 2.98527e-17, cumulative = 6.61718e-06
ExecutionTime = 1478.1 s  ClockTime = 1632 s

fieldMinMax minMax write:
    min(mag(U)) = 0 in cell 36960 at location (0.000485708 0 0.05)
    max(mag(U)) = 71.4736 in cell 37860 at location (0.00243313 0.000124751 0.05)

Time = 59.99

smoothSolver:  Solving for Ux, Initial residual = 6.19791e-11, Final residual = 6.19791e-11, No Iterations 0
smoothSolver:  Solving for Uy, Initial residual = 9.73888e-11, Final residual = 9.73888e-11, No Iterations 0
GAMG:  Solving for p, Initial residual = 8.34646e-10, Final residual = 5.07269e-13, No Iterations 1
time step continuity errors : sum local = 1.58616e-14, global = 9.48446e-17, cumulative = 6.61718e-06
ExecutionTime = 1478.3 s  ClockTime = 1632 s

fieldMinMax minMax write:
    min(mag(U)) = 0 in cell 36960 at location (0.000485708 0 0.05)
    max(mag(U)) = 71.4736 in cell 37860 at location (0.00243313 0.000124751 0.05)

Time = 60

smoothSolver:  Solving for Ux, Initial residual = 8.65615e-11, Final residual = 8.65615e-11, No Iterations 0
smoothSolver:  Solving for Uy, Initial residual = 1.50598e-10, Final residual = 1.57881e-12, No Iterations 1
GAMG:  Solving for p, Initial residual = 4.33355e-09, Final residual = 1.04502e-12, No Iterations 1
time step continuity errors : sum local = 2.02817e-14, global = 1.32141e-17, cumulative = 6.61718e-06
ExecutionTime = 1478.91 s  ClockTime = 1633 s

fieldMinMax minMax write:
    min(mag(U)) = 0 in cell 36960 at location (0.000485708 0 0.05)
    max(mag(U)) = 71.4736 in cell 37860 at location (0.00243313 0.000124751 0.05)

yPlus yPlus write:
    writing field yPlus
    patch topWall y+ : min = 0.0376271, max = 0.369825, average = 0.322621
    patch bottomWall y+ : min = 1.26611, max = 10.1402, average = 2.23532
writeCellCentres writeCellCentres write:
    writing cell-volumes field C to 60
    Writing the x component field of the cell-centres Cx to 60
    Writing the y component field of the cell-centres Cy to 60
    Writing the z component field of the cell-centres Cz to 60
wallShearStress wallShearStress write:
    writing field wallShearStress
    min/max(topWall) = (-1.37778e-09 -9.63387e-07 0), (7.88232e-09 -1.04219e-08 0)
    min/max(bottomWall) = (-32.592 -0.486626 0), (-0.508093 0.0252354 0)
End

