/*---------------------------------------------------------------------------*\
| =========                 |                                                 |
| \\      /  F ield         | OpenFOAM: The Open Source CFD Toolbox           |
|  \\    /   O peration     | Version:  v2012                                 |
|   \\  /    A nd           | Website:  www.openfoam.com                      |
|    \\/     M anipulation  |                                                 |
\*---------------------------------------------------------------------------*/
Build  : _7bdb509494-20201222 OPENFOAM=2012
Arch   : "LSB;label=32;scalar=64"
Exec   : simpleFoam
Date   : Mar 22 2025
Time   : 23:03:46
Host   : Taupok
PID    : 2967
I/O    : uncollated
Case   : /mnt/c/Users/lowjo/OneDrive/Desktop/ASTAR/DASH/testLaminarFlatPlate
nProcs : 1
trapFpe: Floating point exception trapping enabled (FOAM_SIGFPE).
fileModificationChecking : Monitoring run-time modified files using timeStampMaster (fileModificationSkew 5, maxFileModificationPolls 20)
allowSystemOperations : Allowing user-supplied system call operations

// * * * * * * * * * * * * * * * * * * * * * * * * * * * * * * * * * * * * * //
Create time

Create mesh for time = 0


SIMPLE: no convergence criteria found. Calculations will run for 60 steps.

Reading field p

Reading field U

Reading/calculating face flux field phi

Selecting incompressible transport model Newtonian
Selecting turbulence model type laminar
Selecting laminar stress model Stokes
No MRF models present

No finite volume options present

Starting time loop

wallShearStress wallShearStress:
    processing all wall patches

Time = 0.01

smoothSolver:  Solving for Ux, Initial residual = 1, Final residual = 0.0117173, No Iterations 1
smoothSolver:  Solving for Uy, Initial residual = 1, Final residual = 0.00182789, No Iterations 1
GAMG:  Solving for p, Initial residual = 1, Final residual = 0.0477539, No Iterations 10
time step continuity errors : sum local = 1.30166e-06, global = -2.48431e-07, cumulative = -2.48431e-07
ExecutionTime = 1.47 s  ClockTime = 2 s

fieldMinMax minMax write:
    min(mag(U)) = 0 in cell 36960 at location (0.000485708 0 0.05)
    max(mag(U)) = 69.4147 in cell 37871 at location (0.0133096 0.000765377 0.05)

Time = 0.02

smoothSolver:  Solving for Ux, Initial residual = 0.0969784, Final residual = 0.00141532, No Iterations 1
smoothSolver:  Solving for Uy, Initial residual = 0.377028, Final residual = 0.00206875, No Iterations 1
GAMG:  Solving for p, Initial residual = 0.00157939, Final residual = 0.000110283, No Iterations 5
time step continuity errors : sum local = 2.00562e-06, global = 2.23583e-07, cumulative = -2.48477e-08
ExecutionTime = 1.76 s  ClockTime = 2 s

fieldMinMax minMax write:
    min(mag(U)) = 0 in cell 36960 at location (0.000485708 0 0.05)
    max(mag(U)) = 69.7442 in cell 37417 at location (0.00833079 0.000457326 0.05)

Time = 0.03

smoothSolver:  Solving for Ux, Initial residual = 0.0479603, Final residual = 0.000937054, No Iterations 1
smoothSolver:  Solving for Uy, Initial residual = 0.211001, Final residual = 0.00110262, No Iterations 1
GAMG:  Solving for p, Initial residual = 0.00143409, Final residual = 7.07229e-05, No Iterations 8
time step continuity errors : sum local = 1.29323e-06, global = 8.62145e-08, cumulative = 6.13668e-08
ExecutionTime = 2.12 s  ClockTime = 2 s

fieldMinMax minMax write:
    min(mag(U)) = 0 in cell 36960 at location (0.000485708 0 0.05)
    max(mag(U)) = 70.2234 in cell 37420 at location (0.011311 0.000457326 0.05)

Time = 0.04

smoothSolver:  Solving for Ux, Initial residual = 0.0297285, Final residual = 0.000717723, No Iterations 1
smoothSolver:  Solving for Uy, Initial residual = 0.137941, Final residual = 0.000683002, No Iterations 1
GAMG:  Solving for p, Initial residual = 0.0015572, Final residual = 0.000153682, No Iterations 6
time step continuity errors : sum local = 2.59182e-06, global = 1.31672e-07, cumulative = 1.93038e-07
ExecutionTime = 2.52 s  ClockTime = 3 s

fieldMinMax minMax write:
    min(mag(U)) = 0 in cell 36960 at location (0.000485708 0 0.05)
    max(mag(U)) = 70.7256 in cell 37422 at location (0.0133096 0.000457326 0.05)

Time = 0.05

smoothSolver:  Solving for Ux, Initial residual = 0.0206509, Final residual = 0.000578244, No Iterations 1
smoothSolver:  Solving for Uy, Initial residual = 0.0998621, Final residual = 0.000472566, No Iterations 1
GAMG:  Solving for p, Initial residual = 0.0018506, Final residual = 0.000152498, No Iterations 6
time step continuity errors : sum local = 2.34518e-06, global = 7.92379e-08, cumulative = 2.72276e-07
ExecutionTime = 2.83 s  ClockTime = 3 s

fieldMinMax minMax write:
    min(mag(U)) = 0 in cell 36960 at location (0.000485708 0 0.05)
    max(mag(U)) = 71.1992 in cell 37425 at location (0.0163252 0.000457326 0.05)

Time = 0.06

smoothSolver:  Solving for Ux, Initial residual = 0.0153631, Final residual = 0.00047795, No Iterations 1
smoothSolver:  Solving for Uy, Initial residual = 0.0763243, Final residual = 0.000349992, No Iterations 1
GAMG:  Solving for p, Initial residual = 0.00199509, Final residual = 0.000143683, No Iterations 6
time step continuity errors : sum local = 2.00856e-06, global = 1.11545e-07, cumulative = 3.83821e-07
ExecutionTime = 3.17 s  ClockTime = 3 s

fieldMinMax minMax write:
    min(mag(U)) = 0 in cell 36960 at location (0.000485708 0 0.05)
    max(mag(U)) = 71.6187 in cell 37428 at location (0.0193622 0.000457326 0.05)

Time = 0.07

smoothSolver:  Solving for Ux, Initial residual = 0.0120982, Final residual = 0.000403247, No Iterations 1
smoothSolver:  Solving for Uy, Initial residual = 0.061485, Final residual = 0.000273541, No Iterations 1
GAMG:  Solving for p, Initial residual = 0.00197598, Final residual = 0.000115238, No Iterations 6
time step continuity errors : sum local = 1.49779e-06, global = 7.57215e-08, cumulative = 4.59543e-07
ExecutionTime = 3.55 s  ClockTime = 4 s

fieldMinMax minMax write:
    min(mag(U)) = 0 in cell 36960 at location (0.000485708 0 0.05)
    max(mag(U)) = 71.9787 in cell 37430 at location (0.0213988 0.000457326 0.05)

Time = 0.08

smoothSolver:  Solving for Ux, Initial residual = 0.00984199, Final residual = 0.000345738, No Iterations 1
smoothSolver:  Solving for Uy, Initial residual = 0.0511574, Final residual = 0.000221745, No Iterations 1
GAMG:  Solving for p, Initial residual = 0.00193732, Final residual = 0.000161564, No Iterations 4
time step continuity errors : sum local = 1.97053e-06, global = 2.67871e-07, cumulative = 7.27413e-07
ExecutionTime = 3.81 s  ClockTime = 4 s

fieldMinMax minMax write:
    min(mag(U)) = 0 in cell 36960 at location (0.000485708 0 0.05)
    max(mag(U)) = 72.2745 in cell 37432 at location (0.0234451 0.000457326 0.05)

Time = 0.09

smoothSolver:  Solving for Ux, Initial residual = 0.00831599, Final residual = 0.000301125, No Iterations 1
smoothSolver:  Solving for Uy, Initial residual = 0.0442184, Final residual = 0.00018852, No Iterations 1
GAMG:  Solving for p, Initial residual = 0.00187768, Final residual = 0.000163692, No Iterations 4
time step continuity errors : sum local = 1.92391e-06, global = 3.77062e-07, cumulative = 1.10448e-06
ExecutionTime = 4.06 s  ClockTime = 4 s

fieldMinMax minMax write:
    min(mag(U)) = 0 in cell 36960 at location (0.000485708 0 0.05)
    max(mag(U)) = 72.5107 in cell 37433 at location (0.0244718 0.000457326 0.05)

Time = 0.1

smoothSolver:  Solving for Ux, Initial residual = 0.00707789, Final residual = 0.000264901, No Iterations 1
smoothSolver:  Solving for Uy, Initial residual = 0.0385055, Final residual = 0.000164952, No Iterations 1
GAMG:  Solving for p, Initial residual = 0.00185271, Final residual = 0.000153025, No Iterations 4
time step continuity errors : sum local = 1.72071e-06, global = 2.8626e-07, cumulative = 1.39074e-06
ExecutionTime = 4.32 s  ClockTime = 4 s

fieldMinMax minMax write:
    min(mag(U)) = 0 in cell 36960 at location (0.000485708 0 0.05)
    max(mag(U)) = 72.6941 in cell 37435 at location (0.0265326 0.000457326 0.05)

Time = 0.11

smoothSolver:  Solving for Ux, Initial residual = 0.00609391, Final residual = 0.000235249, No Iterations 1
smoothSolver:  Solving for Uy, Initial residual = 0.034045, Final residual = 0.000148164, No Iterations 1
GAMG:  Solving for p, Initial residual = 0.00181631, Final residual = 0.000135062, No Iterations 4
time step continuity errors : sum local = 1.45903e-06, global = 1.85549e-07, cumulative = 1.57628e-06
ExecutionTime = 4.58 s  ClockTime = 5 s

fieldMinMax minMax write:
    min(mag(U)) = 0 in cell 36960 at location (0.000485708 0 0.05)
    max(mag(U)) = 72.8329 in cell 37436 at location (0.0275667 0.000457326 0.05)

Time = 0.12

smoothSolver:  Solving for Ux, Initial residual = 0.00531673, Final residual = 0.000210648, No Iterations 1
smoothSolver:  Solving for Uy, Initial residual = 0.0304971, Final residual = 0.000134484, No Iterations 1
GAMG:  Solving for p, Initial residual = 0.00180239, Final residual = 0.000119893, No Iterations 4
time step continuity errors : sum local = 1.25427e-06, global = 1.58586e-07, cumulative = 1.73487e-06
ExecutionTime = 4.84 s  ClockTime = 5 s

fieldMinMax minMax write:
    min(mag(U)) = 0 in cell 36960 at location (0.000485708 0 0.05)
    max(mag(U)) = 72.9369 in cell 37436 at location (0.0275667 0.000457326 0.05)

Time = 0.13

smoothSolver:  Solving for Ux, Initial residual = 0.00469125, Final residual = 0.000189957, No Iterations 1
smoothSolver:  Solving for Uy, Initial residual = 0.0275529, Final residual = 0.000122205, No Iterations 1
GAMG:  Solving for p, Initial residual = 0.00177307, Final residual = 0.000112068, No Iterations 4
time step continuity errors : sum local = 1.14308e-06, global = 1.47856e-07, cumulative = 1.88273e-06
ExecutionTime = 5.1 s  ClockTime = 5 s

fieldMinMax minMax write:
    min(mag(U)) = 0 in cell 36960 at location (0.000485708 0 0.05)
    max(mag(U)) = 73.0123 in cell 37437 at location (0.0286031 0.000457326 0.05)

Time = 0.14

smoothSolver:  Solving for Ux, Initial residual = 0.00416959, Final residual = 0.000172342, No Iterations 1
smoothSolver:  Solving for Uy, Initial residual = 0.0249876, Final residual = 0.000110524, No Iterations 1
GAMG:  Solving for p, Initial residual = 0.00173452, Final residual = 0.00010228, No Iterations 4
time step continuity errors : sum local = 1.01986e-06, global = 1.2674e-07, cumulative = 2.00947e-06
ExecutionTime = 5.35 s  ClockTime = 6 s

fieldMinMax minMax write:
    min(mag(U)) = 0 in cell 36960 at location (0.000485708 0 0.05)
    max(mag(U)) = 73.0677 in cell 37437 at location (0.0286031 0.000457326 0.05)

Time = 0.15

smoothSolver:  Solving for Ux, Initial residual = 0.00373095, Final residual = 0.000157183, No Iterations 1
smoothSolver:  Solving for Uy, Initial residual = 0.0227228, Final residual = 9.97438e-05, No Iterations 1
GAMG:  Solving for p, Initial residual = 0.00168516, Final residual = 8.9694e-05, No Iterations 4
time step continuity errors : sum local = 8.75259e-07, global = 9.98485e-08, cumulative = 2.10931e-06
ExecutionTime = 5.61 s  ClockTime = 6 s

fieldMinMax minMax write:
    min(mag(U)) = 0 in cell 36960 at location (0.000485708 0 0.05)
    max(mag(U)) = 73.1072 in cell 37437 at location (0.0286031 0.000457326 0.05)

Time = 0.16

smoothSolver:  Solving for Ux, Initial residual = 0.00336155, Final residual = 0.000143962, No Iterations 1
smoothSolver:  Solving for Uy, Initial residual = 0.0207472, Final residual = 8.99338e-05, No Iterations 1
GAMG:  Solving for p, Initial residual = 0.00162571, Final residual = 7.75423e-05, No Iterations 4
time step continuity errors : sum local = 7.41457e-07, global = 8.20781e-08, cumulative = 2.19139e-06
ExecutionTime = 5.87 s  ClockTime = 6 s

fieldMinMax minMax write:
    min(mag(U)) = 0 in cell 36960 at location (0.000485708 0 0.05)
    max(mag(U)) = 73.1352 in cell 37437 at location (0.0286031 0.000457326 0.05)

Time = 0.17

smoothSolver:  Solving for Ux, Initial residual = 0.00304698, Final residual = 0.000132318, No Iterations 1
smoothSolver:  Solving for Uy, Initial residual = 0.019045, Final residual = 8.13626e-05, No Iterations 1
GAMG:  Solving for p, Initial residual = 0.0015617, Final residual = 7.33295e-05, No Iterations 4
time step continuity errors : sum local = 6.88386e-07, global = 7.8395e-08, cumulative = 2.26979e-06
ExecutionTime = 6.12 s  ClockTime = 6 s

fieldMinMax minMax write:
    min(mag(U)) = 0 in cell 36960 at location (0.000485708 0 0.05)
    max(mag(U)) = 73.155 in cell 37437 at location (0.0286031 0.000457326 0.05)

Time = 0.18

smoothSolver:  Solving for Ux, Initial residual = 0.00277689, Final residual = 0.000121987, No Iterations 1
smoothSolver:  Solving for Uy, Initial residual = 0.0175761, Final residual = 7.3925e-05, No Iterations 1
GAMG:  Solving for p, Initial residual = 0.0015011, Final residual = 7.50636e-05, No Iterations 4
time step continuity errors : sum local = 6.93149e-07, global = 7.11858e-08, cumulative = 2.34097e-06
ExecutionTime = 6.38 s  ClockTime = 7 s

fieldMinMax minMax write:
    min(mag(U)) = 0 in cell 36960 at location (0.000485708 0 0.05)
    max(mag(U)) = 73.1688 in cell 37437 at location (0.0286031 0.000457326 0.05)

Time = 0.19

smoothSolver:  Solving for Ux, Initial residual = 0.00254268, Final residual = 0.000112765, No Iterations 1
smoothSolver:  Solving for Uy, Initial residual = 0.016296, Final residual = 6.73761e-05, No Iterations 1
GAMG:  Solving for p, Initial residual = 0.00144358, Final residual = 7.73447e-05, No Iterations 4
time step continuity errors : sum local = 7.03647e-07, global = 4.95971e-08, cumulative = 2.39057e-06
ExecutionTime = 6.63 s  ClockTime = 7 s

fieldMinMax minMax write:
    min(mag(U)) = 0 in cell 36960 at location (0.000485708 0 0.05)
    max(mag(U)) = 73.1784 in cell 37437 at location (0.0286031 0.000457326 0.05)

Time = 0.2

smoothSolver:  Solving for Ux, Initial residual = 0.00233736, Final residual = 0.000104487, No Iterations 1
smoothSolver:  Solving for Uy, Initial residual = 0.0151632, Final residual = 6.14504e-05, No Iterations 1
GAMG:  Solving for p, Initial residual = 0.0013938, Final residual = 7.90535e-05, No Iterations 4
time step continuity errors : sum local = 7.09434e-07, global = 1.85218e-08, cumulative = 2.40909e-06
ExecutionTime = 6.89 s  ClockTime = 7 s

fieldMinMax minMax write:
    min(mag(U)) = 0 in cell 36960 at location (0.000485708 0 0.05)
    max(mag(U)) = 73.1848 in cell 37437 at location (0.0286031 0.000457326 0.05)

Time = 0.21

smoothSolver:  Solving for Ux, Initial residual = 0.00215649, Final residual = 9.70238e-05, No Iterations 1
smoothSolver:  Solving for Uy, Initial residual = 0.0141547, Final residual = 5.6162e-05, No Iterations 1
GAMG:  Solving for p, Initial residual = 0.00134109, Final residual = 7.95057e-05, No Iterations 4
time step continuity errors : sum local = 7.04625e-07, global = -6.53513e-09, cumulative = 2.40256e-06
ExecutionTime = 7.15 s  ClockTime = 7 s

fieldMinMax minMax write:
    min(mag(U)) = 0 in cell 36960 at location (0.000485708 0 0.05)
    max(mag(U)) = 73.1891 in cell 37437 at location (0.0286031 0.000457326 0.05)

Time = 0.22

smoothSolver:  Solving for Ux, Initial residual = 0.00199623, Final residual = 9.02689e-05, No Iterations 1
smoothSolver:  Solving for Uy, Initial residual = 0.0132577, Final residual = 5.14256e-05, No Iterations 1
GAMG:  Solving for p, Initial residual = 0.00128876, Final residual = 7.79738e-05, No Iterations 4
time step continuity errors : sum local = 6.83195e-07, global = -1.9942e-08, cumulative = 2.38262e-06
ExecutionTime = 7.41 s  ClockTime = 8 s

fieldMinMax minMax write:
    min(mag(U)) = 0 in cell 36960 at location (0.000485708 0 0.05)
    max(mag(U)) = 73.1918 in cell 37437 at location (0.0286031 0.000457326 0.05)

Time = 0.23

smoothSolver:  Solving for Ux, Initial residual = 0.00185286, Final residual = 8.41268e-05, No Iterations 1
smoothSolver:  Solving for Uy, Initial residual = 0.0124624, Final residual = 4.72933e-05, No Iterations 1
GAMG:  Solving for p, Initial residual = 0.00124031, Final residual = 7.52404e-05, No Iterations 4
time step continuity errors : sum local = 6.52333e-07, global = -2.56182e-08, cumulative = 2.357e-06
ExecutionTime = 7.67 s  ClockTime = 8 s

fieldMinMax minMax write:
    min(mag(U)) = 0 in cell 36960 at location (0.000485708 0 0.05)
    max(mag(U)) = 73.1934 in cell 37437 at location (0.0286031 0.000457326 0.05)

Time = 0.24

smoothSolver:  Solving for Ux, Initial residual = 0.00172471, Final residual = 7.85343e-05, No Iterations 1
smoothSolver:  Solving for Uy, Initial residual = 0.0117577, Final residual = 4.37724e-05, No Iterations 1
GAMG:  Solving for p, Initial residual = 0.00118608, Final residual = 7.21571e-05, No Iterations 4
time step continuity errors : sum local = 6.19595e-07, global = -2.77237e-08, cumulative = 2.32927e-06
ExecutionTime = 7.93 s  ClockTime = 8 s

fieldMinMax minMax write:
    min(mag(U)) = 0 in cell 36960 at location (0.000485708 0 0.05)
    max(mag(U)) = 73.1943 in cell 37437 at location (0.0286031 0.000457326 0.05)

Time = 0.25

smoothSolver:  Solving for Ux, Initial residual = 0.00161089, Final residual = 7.34437e-05, No Iterations 1
smoothSolver:  Solving for Uy, Initial residual = 0.0111344, Final residual = 4.07765e-05, No Iterations 1
GAMG:  Solving for p, Initial residual = 0.00113397, Final residual = 6.89768e-05, No Iterations 4
time step continuity errors : sum local = 5.87154e-07, global = -2.76722e-08, cumulative = 2.3016e-06
ExecutionTime = 8.18 s  ClockTime = 8 s

fieldMinMax minMax write:
    min(mag(U)) = 0 in cell 36960 at location (0.000485708 0 0.05)
    max(mag(U)) = 73.1947 in cell 37437 at location (0.0286031 0.000457326 0.05)

Time = 0.26

smoothSolver:  Solving for Ux, Initial residual = 0.00151076, Final residual = 6.88089e-05, No Iterations 1
smoothSolver:  Solving for Uy, Initial residual = 0.010581, Final residual = 3.82362e-05, No Iterations 1
GAMG:  Solving for p, Initial residual = 0.00108079, Final residual = 6.61129e-05, No Iterations 4
time step continuity errors : sum local = 5.58386e-07, global = -2.63115e-08, cumulative = 2.27529e-06
ExecutionTime = 8.45 s  ClockTime = 9 s

fieldMinMax minMax write:
    min(mag(U)) = 0 in cell 36960 at location (0.000485708 0 0.05)
    max(mag(U)) = 73.1947 in cell 37437 at location (0.0286031 0.000457326 0.05)

Time = 0.27

smoothSolver:  Solving for Ux, Initial residual = 0.00142123, Final residual = 6.45641e-05, No Iterations 1
smoothSolver:  Solving for Uy, Initial residual = 0.0100841, Final residual = 3.60156e-05, No Iterations 1
GAMG:  Solving for p, Initial residual = 0.00102745, Final residual = 6.40244e-05, No Iterations 4
time step continuity errors : sum local = 5.36948e-07, global = -2.42069e-08, cumulative = 2.25108e-06
ExecutionTime = 8.7 s  ClockTime = 9 s

fieldMinMax minMax write:
    min(mag(U)) = 0 in cell 36960 at location (0.000485708 0 0.05)
    max(mag(U)) = 73.1945 in cell 37437 at location (0.0286031 0.000457326 0.05)

Time = 0.28

smoothSolver:  Solving for Ux, Initial residual = 0.00133951, Final residual = 6.06945e-05, No Iterations 1
smoothSolver:  Solving for Uy, Initial residual = 0.00963161, Final residual = 3.40449e-05, No Iterations 1
GAMG:  Solving for p, Initial residual = 0.000976232, Final residual = 6.24272e-05, No Iterations 4
time step continuity errors : sum local = 5.20238e-07, global = -2.15441e-08, cumulative = 2.22954e-06
ExecutionTime = 8.96 s  ClockTime = 9 s

fieldMinMax minMax write:
    min(mag(U)) = 0 in cell 36960 at location (0.000485708 0 0.05)
    max(mag(U)) = 73.1942 in cell 37437 at location (0.0286031 0.000457326 0.05)

Time = 0.29

smoothSolver:  Solving for Ux, Initial residual = 0.00126498, Final residual = 5.71205e-05, No Iterations 1
smoothSolver:  Solving for Uy, Initial residual = 0.00921496, Final residual = 3.2273e-05, No Iterations 1
GAMG:  Solving for p, Initial residual = 0.000928123, Final residual = 6.09477e-05, No Iterations 4
time step continuity errors : sum local = 5.05e-07, global = -1.84185e-08, cumulative = 2.21112e-06
ExecutionTime = 9.22 s  ClockTime = 9 s

fieldMinMax minMax write:
    min(mag(U)) = 0 in cell 36960 at location (0.000485708 0 0.05)
    max(mag(U)) = 73.1938 in cell 37437 at location (0.0286031 0.000457326 0.05)

Time = 0.3

smoothSolver:  Solving for Ux, Initial residual = 0.0011981, Final residual = 5.38207e-05, No Iterations 1
smoothSolver:  Solving for Uy, Initial residual = 0.00882592, Final residual = 3.06448e-05, No Iterations 1
GAMG:  Solving for p, Initial residual = 0.000882513, Final residual = 6.01679e-05, No Iterations 4
time step continuity errors : sum local = 4.95938e-07, global = -1.59189e-08, cumulative = 2.1952e-06
ExecutionTime = 9.48 s  ClockTime = 10 s

fieldMinMax minMax write:
    min(mag(U)) = 0 in cell 36960 at location (0.000485708 0 0.05)
    max(mag(U)) = 73.1934 in cell 37437 at location (0.0286031 0.000457326 0.05)

Time = 0.31

smoothSolver:  Solving for Ux, Initial residual = 0.00114012, Final residual = 5.07693e-05, No Iterations 1
smoothSolver:  Solving for Uy, Initial residual = 0.00845831, Final residual = 2.90967e-05, No Iterations 1
GAMG:  Solving for p, Initial residual = 0.000840053, Final residual = 5.80392e-05, No Iterations 4
time step continuity errors : sum local = 4.76115e-07, global = -1.14162e-08, cumulative = 2.18379e-06
ExecutionTime = 9.73 s  ClockTime = 10 s

fieldMinMax minMax write:
    min(mag(U)) = 0 in cell 36960 at location (0.000485708 0 0.05)
    max(mag(U)) = 73.193 in cell 37437 at location (0.0286031 0.000457326 0.05)

Time = 0.32

smoothSolver:  Solving for Ux, Initial residual = 0.00108819, Final residual = 4.79518e-05, No Iterations 1
smoothSolver:  Solving for Uy, Initial residual = 0.00810836, Final residual = 2.76099e-05, No Iterations 1
GAMG:  Solving for p, Initial residual = 0.000799572, Final residual = 5.62387e-05, No Iterations 4
time step continuity errors : sum local = 4.59274e-07, global = -6.88264e-09, cumulative = 2.1769e-06
ExecutionTime = 9.99 s  ClockTime = 10 s

fieldMinMax minMax write:
    min(mag(U)) = 0 in cell 36960 at location (0.000485708 0 0.05)
    max(mag(U)) = 73.1925 in cell 37437 at location (0.0286031 0.000457326 0.05)

Time = 0.33

smoothSolver:  Solving for Ux, Initial residual = 0.00104114, Final residual = 4.53511e-05, No Iterations 1
smoothSolver:  Solving for Uy, Initial residual = 0.00777367, Final residual = 2.6171e-05, No Iterations 1
GAMG:  Solving for p, Initial residual = 0.000761432, Final residual = 5.43051e-05, No Iterations 4
time step continuity errors : sum local = 4.41654e-07, global = -2.84946e-09, cumulative = 2.17405e-06
ExecutionTime = 10.24 s  ClockTime = 11 s

fieldMinMax minMax write:
    min(mag(U)) = 0 in cell 36960 at location (0.000485708 0 0.05)
    max(mag(U)) = 73.1921 in cell 37437 at location (0.0286031 0.000457326 0.05)

Time = 0.34

smoothSolver:  Solving for Ux, Initial residual = 0.000998194, Final residual = 4.29407e-05, No Iterations 1
smoothSolver:  Solving for Uy, Initial residual = 0.0074529, Final residual = 2.47929e-05, No Iterations 1
GAMG:  Solving for p, Initial residual = 0.000725086, Final residual = 5.2227e-05, No Iterations 4
time step continuity errors : sum local = 4.23124e-07, global = 8.69375e-10, cumulative = 2.17492e-06
ExecutionTime = 10.5 s  ClockTime = 11 s

fieldMinMax minMax write:
    min(mag(U)) = 0 in cell 36960 at location (0.000485708 0 0.05)
    max(mag(U)) = 73.1917 in cell 37437 at location (0.0286031 0.000457326 0.05)

Time = 0.35

smoothSolver:  Solving for Ux, Initial residual = 0.000958889, Final residual = 4.06918e-05, No Iterations 1
smoothSolver:  Solving for Uy, Initial residual = 0.0071456, Final residual = 2.34805e-05, No Iterations 1
GAMG:  Solving for p, Initial residual = 0.00068986, Final residual = 5.00775e-05, No Iterations 4
time step continuity errors : sum local = 4.04259e-07, global = 4.23889e-09, cumulative = 2.17916e-06
ExecutionTime = 10.76 s  ClockTime = 11 s

fieldMinMax minMax write:
    min(mag(U)) = 0 in cell 36960 at location (0.000485708 0 0.05)
    max(mag(U)) = 73.1913 in cell 37437 at location (0.0286031 0.000457326 0.05)

Time = 0.36

smoothSolver:  Solving for Ux, Initial residual = 0.000922712, Final residual = 3.8581e-05, No Iterations 1
smoothSolver:  Solving for Uy, Initial residual = 0.0068525, Final residual = 2.22495e-05, No Iterations 1
GAMG:  Solving for p, Initial residual = 0.000655635, Final residual = 4.81291e-05, No Iterations 4
time step continuity errors : sum local = 3.87235e-07, global = 7.24153e-09, cumulative = 2.1864e-06
ExecutionTime = 11.01 s  ClockTime = 11 s

fieldMinMax minMax write:
    min(mag(U)) = 0 in cell 36960 at location (0.000485708 0 0.05)
    max(mag(U)) = 73.191 in cell 37437 at location (0.0286031 0.000457326 0.05)

Time = 0.37

smoothSolver:  Solving for Ux, Initial residual = 0.000889273, Final residual = 3.65999e-05, No Iterations 1
smoothSolver:  Solving for Uy, Initial residual = 0.00657654, Final residual = 2.11371e-05, No Iterations 1
GAMG:  Solving for p, Initial residual = 0.000622842, Final residual = 4.61534e-05, No Iterations 4
time step continuity errors : sum local = 3.70192e-07, global = 1.00139e-08, cumulative = 2.19642e-06
ExecutionTime = 11.27 s  ClockTime = 12 s

fieldMinMax minMax write:
    min(mag(U)) = 0 in cell 36960 at location (0.000485708 0 0.05)
    max(mag(U)) = 73.1907 in cell 37437 at location (0.0286031 0.000457326 0.05)

Time = 0.38

smoothSolver:  Solving for Ux, Initial residual = 0.000858432, Final residual = 3.47394e-05, No Iterations 1
smoothSolver:  Solving for Uy, Initial residual = 0.00631593, Final residual = 2.01452e-05, No Iterations 1
GAMG:  Solving for p, Initial residual = 0.000591619, Final residual = 4.42613e-05, No Iterations 4
time step continuity errors : sum local = 3.54002e-07, global = 1.26752e-08, cumulative = 2.20909e-06
ExecutionTime = 11.52 s  ClockTime = 12 s

fieldMinMax minMax write:
    min(mag(U)) = 0 in cell 36960 at location (0.000485708 0 0.05)
    max(mag(U)) = 73.1904 in cell 37437 at location (0.0286031 0.000457326 0.05)

Time = 0.39

smoothSolver:  Solving for Ux, Initial residual = 0.000829781, Final residual = 3.29882e-05, No Iterations 1
smoothSolver:  Solving for Uy, Initial residual = 0.00606994, Final residual = 1.92424e-05, No Iterations 1
GAMG:  Solving for p, Initial residual = 0.00056187, Final residual = 4.23603e-05, No Iterations 4
time step continuity errors : sum local = 3.37917e-07, global = 1.54221e-08, cumulative = 2.22451e-06
ExecutionTime = 11.78 s  ClockTime = 12 s

fieldMinMax minMax write:
    min(mag(U)) = 0 in cell 36960 at location (0.000485708 0 0.05)
    max(mag(U)) = 73.1901 in cell 37437 at location (0.0286031 0.000457326 0.05)

Time = 0.4

smoothSolver:  Solving for Ux, Initial residual = 0.000802684, Final residual = 3.13373e-05, No Iterations 1
smoothSolver:  Solving for Uy, Initial residual = 0.00583885, Final residual = 1.84303e-05, No Iterations 1
GAMG:  Solving for p, Initial residual = 0.000533011, Final residual = 4.03602e-05, No Iterations 4
time step continuity errors : sum local = 3.21211e-07, global = 1.82499e-08, cumulative = 2.24276e-06
ExecutionTime = 12.03 s  ClockTime = 12 s

fieldMinMax minMax write:
    min(mag(U)) = 0 in cell 36960 at location (0.000485708 0 0.05)
    max(mag(U)) = 73.1899 in cell 37437 at location (0.0286031 0.000457326 0.05)

Time = 0.41

smoothSolver:  Solving for Ux, Initial residual = 0.000776854, Final residual = 2.97773e-05, No Iterations 1
smoothSolver:  Solving for Uy, Initial residual = 0.00562207, Final residual = 1.77039e-05, No Iterations 1
GAMG:  Solving for p, Initial residual = 0.000505198, Final residual = 3.82766e-05, No Iterations 4
time step continuity errors : sum local = 3.04001e-07, global = 2.10418e-08, cumulative = 2.26381e-06
ExecutionTime = 12.29 s  ClockTime = 13 s

fieldMinMax minMax write:
    min(mag(U)) = 0 in cell 36960 at location (0.000485708 0 0.05)
    max(mag(U)) = 73.1897 in cell 37437 at location (0.0286031 0.000457326 0.05)

Time = 0.42

smoothSolver:  Solving for Ux, Initial residual = 0.000751901, Final residual = 2.82904e-05, No Iterations 1
smoothSolver:  Solving for Uy, Initial residual = 0.00541876, Final residual = 1.7051e-05, No Iterations 1
GAMG:  Solving for p, Initial residual = 0.00047912, Final residual = 3.61502e-05, No Iterations 4
time step continuity errors : sum local = 2.86602e-07, global = 2.34697e-08, cumulative = 2.28728e-06
ExecutionTime = 12.55 s  ClockTime = 13 s

fieldMinMax minMax write:
    min(mag(U)) = 0 in cell 36960 at location (0.000485708 0 0.05)
    max(mag(U)) = 73.1958 in cell 37930 at location (0.0767139 0.000765377 0.05)

Time = 0.43

smoothSolver:  Solving for Ux, Initial residual = 0.000727434, Final residual = 2.6869e-05, No Iterations 1
smoothSolver:  Solving for Uy, Initial residual = 0.00522858, Final residual = 1.64602e-05, No Iterations 1
GAMG:  Solving for p, Initial residual = 0.000454481, Final residual = 3.42612e-05, No Iterations 4
time step continuity errors : sum local = 2.71219e-07, global = 2.46302e-08, cumulative = 2.31191e-06
ExecutionTime = 12.81 s  ClockTime = 13 s

fieldMinMax minMax write:
    min(mag(U)) = 0 in cell 36960 at location (0.000485708 0 0.05)
    max(mag(U)) = 73.2014 in cell 37930 at location (0.0767139 0.000765377 0.05)

Time = 0.44

smoothSolver:  Solving for Ux, Initial residual = 0.0007032, Final residual = 2.55051e-05, No Iterations 1
smoothSolver:  Solving for Uy, Initial residual = 0.00505184, Final residual = 1.59219e-05, No Iterations 1
GAMG:  Solving for p, Initial residual = 0.000430701, Final residual = 3.17154e-05, No Iterations 4
time step continuity errors : sum local = 2.50761e-07, global = 2.49951e-08, cumulative = 2.3369e-06
ExecutionTime = 13.06 s  ClockTime = 13 s

fieldMinMax minMax write:
    min(mag(U)) = 0 in cell 36960 at location (0.000485708 0 0.05)
    max(mag(U)) = 73.2062 in cell 37929 at location (0.0755642 0.000765377 0.05)

Time = 0.45

smoothSolver:  Solving for Ux, Initial residual = 0.000679061, Final residual = 2.41922e-05, No Iterations 1
smoothSolver:  Solving for Uy, Initial residual = 0.00488816, Final residual = 1.543e-05, No Iterations 1
GAMG:  Solving for p, Initial residual = 0.00040782, Final residual = 2.94845e-05, No Iterations 4
time step continuity errors : sum local = 2.3291e-07, global = 2.35082e-08, cumulative = 2.36041e-06
ExecutionTime = 13.31 s  ClockTime = 14 s

fieldMinMax minMax write:
    min(mag(U)) = 0 in cell 36960 at location (0.000485708 0 0.05)
    max(mag(U)) = 73.2106 in cell 37929 at location (0.0755642 0.000765377 0.05)

Time = 0.46

smoothSolver:  Solving for Ux, Initial residual = 0.000654871, Final residual = 2.29273e-05, No Iterations 1
smoothSolver:  Solving for Uy, Initial residual = 0.00473777, Final residual = 1.49803e-05, No Iterations 1
GAMG:  Solving for p, Initial residual = 0.000386298, Final residual = 2.72965e-05, No Iterations 4
time step continuity errors : sum local = 2.15479e-07, global = 1.96279e-08, cumulative = 2.38004e-06
ExecutionTime = 13.57 s  ClockTime = 14 s

fieldMinMax minMax write:
    min(mag(U)) = 0 in cell 36960 at location (0.000485708 0 0.05)
    max(mag(U)) = 73.2143 in cell 37929 at location (0.0755642 0.000765377 0.05)

Time = 0.47

smoothSolver:  Solving for Ux, Initial residual = 0.000630593, Final residual = 2.17088e-05, No Iterations 1
smoothSolver:  Solving for Uy, Initial residual = 0.00460046, Final residual = 1.45739e-05, No Iterations 1
GAMG:  Solving for p, Initial residual = 0.000365741, Final residual = 2.51595e-05, No Iterations 4
time step continuity errors : sum local = 1.98526e-07, global = 1.36708e-08, cumulative = 2.39371e-06
ExecutionTime = 13.81 s  ClockTime = 14 s

fieldMinMax minMax write:
    min(mag(U)) = 0 in cell 36960 at location (0.000485708 0 0.05)
    max(mag(U)) = 73.2176 in cell 37929 at location (0.0755642 0.000765377 0.05)

Time = 0.48

smoothSolver:  Solving for Ux, Initial residual = 0.000606269, Final residual = 2.05367e-05, No Iterations 1
smoothSolver:  Solving for Uy, Initial residual = 0.00447425, Final residual = 1.42009e-05, No Iterations 1
GAMG:  Solving for p, Initial residual = 0.000346493, Final residual = 2.31384e-05, No Iterations 4
time step continuity errors : sum local = 1.82551e-07, global = 7.38969e-09, cumulative = 2.4011e-06
ExecutionTime = 14.06 s  ClockTime = 14 s

fieldMinMax minMax write:
    min(mag(U)) = 0 in cell 36960 at location (0.000485708 0 0.05)
    max(mag(U)) = 73.2204 in cell 37929 at location (0.0755642 0.000765377 0.05)

Time = 0.49

smoothSolver:  Solving for Ux, Initial residual = 0.000581995, Final residual = 1.94125e-05, No Iterations 1
smoothSolver:  Solving for Uy, Initial residual = 0.00435657, Final residual = 1.38432e-05, No Iterations 1
GAMG:  Solving for p, Initial residual = 0.0003284, Final residual = 2.12792e-05, No Iterations 4
time step continuity errors : sum local = 1.67901e-07, global = 6.30988e-10, cumulative = 2.40173e-06
ExecutionTime = 14.32 s  ClockTime = 15 s

fieldMinMax minMax write:
    min(mag(U)) = 0 in cell 36960 at location (0.000485708 0 0.05)
    max(mag(U)) = 73.2229 in cell 37929 at location (0.0755642 0.000765377 0.05)

Time = 0.5

smoothSolver:  Solving for Ux, Initial residual = 0.000557884, Final residual = 1.83399e-05, No Iterations 1
smoothSolver:  Solving for Uy, Initial residual = 0.00424458, Final residual = 1.34876e-05, No Iterations 1
GAMG:  Solving for p, Initial residual = 0.000311338, Final residual = 1.96914e-05, No Iterations 4
time step continuity errors : sum local = 1.55428e-07, global = -5.74248e-09, cumulative = 2.39599e-06
ExecutionTime = 14.92 s  ClockTime = 16 s

fieldMinMax minMax write:
    min(mag(U)) = 0 in cell 36960 at location (0.000485708 0 0.05)
    max(mag(U)) = 73.225 in cell 37929 at location (0.0755642 0.000765377 0.05)

yPlus yPlus write:
    writing field yPlus
    patch topWall y+ : min = 0.0213672, max = 0.256351, average = 0.201524
    patch bottomWall y+ : min = 8.25824, max = 27.4693, average = 13.5825
writeCellCentres writeCellCentres write:
    writing cell-volumes field C to 0.5
    Writing the x component field of the cell-centres Cx to 0.5
    Writing the y component field of the cell-centres Cy to 0.5
    Writing the z component field of the cell-centres Cz to 0.5
wallShearStress wallShearStress write:
    writing field wallShearStress
    min/max(topWall) = (-1.95166e-09 -1.21787e-06 0), (5.11593e-09 -8.80624e-09 0)
    min/max(bottomWall) = (-6.29335 -0.0286623 0), (-0.568745 0.00152988 0)
Time = 0.51

smoothSolver:  Solving for Ux, Initial residual = 0.000534251, Final residual = 1.73242e-05, No Iterations 1
smoothSolver:  Solving for Uy, Initial residual = 0.00413561, Final residual = 1.31255e-05, No Iterations 1
GAMG:  Solving for p, Initial residual = 0.000295216, Final residual = 1.86328e-05, No Iterations 4
time step continuity errors : sum local = 1.47154e-07, global = -1.03952e-08, cumulative = 2.38559e-06
ExecutionTime = 15.55 s  ClockTime = 16 s

fieldMinMax minMax write:
    min(mag(U)) = 0 in cell 36960 at location (0.000485708 0 0.05)
    max(mag(U)) = 73.2269 in cell 37929 at location (0.0755642 0.000765377 0.05)

Time = 0.52

smoothSolver:  Solving for Ux, Initial residual = 0.000511027, Final residual = 1.63695e-05, No Iterations 1
smoothSolver:  Solving for Uy, Initial residual = 0.00402716, Final residual = 1.27486e-05, No Iterations 1
GAMG:  Solving for p, Initial residual = 0.000279786, Final residual = 1.85374e-05, No Iterations 4
time step continuity errors : sum local = 1.46517e-07, global = -1.25558e-08, cumulative = 2.37303e-06
ExecutionTime = 15.84 s  ClockTime = 17 s

fieldMinMax minMax write:
    min(mag(U)) = 0 in cell 36960 at location (0.000485708 0 0.05)
    max(mag(U)) = 73.2285 in cell 37929 at location (0.0755642 0.000765377 0.05)

Time = 0.53

smoothSolver:  Solving for Ux, Initial residual = 0.000487643, Final residual = 1.5471e-05, No Iterations 1
smoothSolver:  Solving for Uy, Initial residual = 0.00391715, Final residual = 1.23532e-05, No Iterations 1
GAMG:  Solving for p, Initial residual = 0.000265202, Final residual = 1.77494e-05, No Iterations 4
time step continuity errors : sum local = 1.40444e-07, global = -1.48424e-08, cumulative = 2.35819e-06
ExecutionTime = 16.1 s  ClockTime = 17 s

fieldMinMax minMax write:
    min(mag(U)) = 0 in cell 36960 at location (0.000485708 0 0.05)
    max(mag(U)) = 73.2299 in cell 37929 at location (0.0755642 0.000765377 0.05)

Time = 0.54

smoothSolver:  Solving for Ux, Initial residual = 0.000464911, Final residual = 1.46319e-05, No Iterations 1
smoothSolver:  Solving for Uy, Initial residual = 0.00380366, Final residual = 1.19363e-05, No Iterations 1
GAMG:  Solving for p, Initial residual = 0.000251387, Final residual = 1.53897e-05, No Iterations 4
time step continuity errors : sum local = 1.21933e-07, global = -1.51633e-08, cumulative = 2.34303e-06
ExecutionTime = 16.36 s  ClockTime = 17 s

fieldMinMax minMax write:
    min(mag(U)) = 0 in cell 36960 at location (0.000485708 0 0.05)
    max(mag(U)) = 73.2311 in cell 37929 at location (0.0755642 0.000765377 0.05)

Time = 0.55

smoothSolver:  Solving for Ux, Initial residual = 0.000443352, Final residual = 1.38573e-05, No Iterations 1
smoothSolver:  Solving for Uy, Initial residual = 0.00368405, Final residual = 1.14908e-05, No Iterations 1
GAMG:  Solving for p, Initial residual = 0.000237934, Final residual = 1.44486e-05, No Iterations 4
time step continuity errors : sum local = 1.1463e-07, global = -1.2012e-08, cumulative = 2.33102e-06
ExecutionTime = 16.64 s  ClockTime = 18 s

fieldMinMax minMax write:
    min(mag(U)) = 0 in cell 36960 at location (0.000485708 0 0.05)
    max(mag(U)) = 73.2322 in cell 37929 at location (0.0755642 0.000765377 0.05)

Time = 0.56

smoothSolver:  Solving for Ux, Initial residual = 0.000423568, Final residual = 1.31501e-05, No Iterations 1
smoothSolver:  Solving for Uy, Initial residual = 0.00355845, Final residual = 1.10181e-05, No Iterations 1
GAMG:  Solving for p, Initial residual = 0.000225625, Final residual = 1.41826e-05, No Iterations 4
time step continuity errors : sum local = 1.12685e-07, global = -1.10866e-08, cumulative = 2.31993e-06
ExecutionTime = 16.9 s  ClockTime = 18 s

fieldMinMax minMax write:
    min(mag(U)) = 0 in cell 36960 at location (0.000485708 0 0.05)
    max(mag(U)) = 73.2331 in cell 37929 at location (0.0755642 0.000765377 0.05)

Time = 0.57

smoothSolver:  Solving for Ux, Initial residual = 0.000405634, Final residual = 1.25129e-05, No Iterations 1
smoothSolver:  Solving for Uy, Initial residual = 0.00342622, Final residual = 1.0522e-05, No Iterations 1
GAMG:  Solving for p, Initial residual = 0.000213742, Final residual = 1.38189e-05, No Iterations 4
time step continuity errors : sum local = 1.09961e-07, global = -1.13057e-08, cumulative = 2.30862e-06
ExecutionTime = 17.15 s  ClockTime = 18 s

fieldMinMax minMax write:
    min(mag(U)) = 0 in cell 36960 at location (0.000485708 0 0.05)
    max(mag(U)) = 73.2338 in cell 37929 at location (0.0755642 0.000765377 0.05)

Time = 0.58

smoothSolver:  Solving for Ux, Initial residual = 0.000389708, Final residual = 1.19421e-05, No Iterations 1
smoothSolver:  Solving for Uy, Initial residual = 0.00328668, Final residual = 1.00061e-05, No Iterations 1
GAMG:  Solving for p, Initial residual = 0.000202636, Final residual = 1.33701e-05, No Iterations 4
time step continuity errors : sum local = 1.06548e-07, global = -1.13991e-08, cumulative = 2.29723e-06
ExecutionTime = 17.41 s  ClockTime = 18 s

fieldMinMax minMax write:
    min(mag(U)) = 0 in cell 36960 at location (0.000485708 0 0.05)
    max(mag(U)) = 73.2345 in cell 37929 at location (0.0755642 0.000765377 0.05)

Time = 0.59

smoothSolver:  Solving for Ux, Initial residual = 0.000375853, Final residual = 1.14355e-05, No Iterations 1
smoothSolver:  Solving for Uy, Initial residual = 0.00314041, Final residual = 9.47647e-06, No Iterations 1
GAMG:  Solving for p, Initial residual = 0.000192327, Final residual = 1.28661e-05, No Iterations 4
time step continuity errors : sum local = 1.02681e-07, global = -1.12381e-08, cumulative = 2.28599e-06
ExecutionTime = 17.67 s  ClockTime = 19 s

fieldMinMax minMax write:
    min(mag(U)) = 0 in cell 36960 at location (0.000485708 0 0.05)
    max(mag(U)) = 73.2351 in cell 37929 at location (0.0755642 0.000765377 0.05)

Time = 0.6

smoothSolver:  Solving for Ux, Initial residual = 0.000363991, Final residual = 1.09895e-05, No Iterations 1
smoothSolver:  Solving for Uy, Initial residual = 0.00298854, Final residual = 8.94007e-06, No Iterations 1
GAMG:  Solving for p, Initial residual = 0.000182811, Final residual = 1.24293e-05, No Iterations 4
time step continuity errors : sum local = 9.93399e-08, global = -1.10183e-08, cumulative = 2.27497e-06
ExecutionTime = 17.95 s  ClockTime = 19 s

fieldMinMax minMax write:
    min(mag(U)) = 0 in cell 36960 at location (0.000485708 0 0.05)
    max(mag(U)) = 73.2356 in cell 37929 at location (0.0755642 0.000765377 0.05)

Time = 0.61

smoothSolver:  Solving for Ux, Initial residual = 0.00035395, Final residual = 1.05986e-05, No Iterations 1
smoothSolver:  Solving for Uy, Initial residual = 0.00283316, Final residual = 8.40948e-06, No Iterations 1
GAMG:  Solving for p, Initial residual = 0.000174254, Final residual = 1.2141e-05, No Iterations 4
time step continuity errors : sum local = 9.71749e-08, global = -1.0974e-08, cumulative = 2.264e-06
ExecutionTime = 18.22 s  ClockTime = 19 s

fieldMinMax minMax write:
    min(mag(U)) = 0 in cell 36960 at location (0.000485708 0 0.05)
    max(mag(U)) = 73.236 in cell 37929 at location (0.0755642 0.000765377 0.05)

Time = 0.62

smoothSolver:  Solving for Ux, Initial residual = 0.000345446, Final residual = 1.02523e-05, No Iterations 1
smoothSolver:  Solving for Uy, Initial residual = 0.00267474, Final residual = 7.90405e-06, No Iterations 1
GAMG:  Solving for p, Initial residual = 0.000166109, Final residual = 1.19913e-05, No Iterations 4
time step continuity errors : sum local = 9.61094e-08, global = -1.13191e-08, cumulative = 2.25268e-06
ExecutionTime = 18.48 s  ClockTime = 19 s

fieldMinMax minMax write:
    min(mag(U)) = 0 in cell 36960 at location (0.000485708 0 0.05)
    max(mag(U)) = 73.2364 in cell 37929 at location (0.0755642 0.000765377 0.05)

Time = 0.63

smoothSolver:  Solving for Ux, Initial residual = 0.000338105, Final residual = 9.9356e-06, No Iterations 1
smoothSolver:  Solving for Uy, Initial residual = 0.00251512, Final residual = 7.41331e-06, No Iterations 1
GAMG:  Solving for p, Initial residual = 0.000158474, Final residual = 1.18265e-05, No Iterations 4
time step continuity errors : sum local = 9.49151e-08, global = -1.18313e-08, cumulative = 2.24084e-06
ExecutionTime = 18.74 s  ClockTime = 20 s

fieldMinMax minMax write:
    min(mag(U)) = 0 in cell 36960 at location (0.000485708 0 0.05)
    max(mag(U)) = 73.2367 in cell 37929 at location (0.0755642 0.000765377 0.05)

Time = 0.64

smoothSolver:  Solving for Ux, Initial residual = 0.000331206, Final residual = 9.63287e-06, No Iterations 1
smoothSolver:  Solving for Uy, Initial residual = 0.00235527, Final residual = 6.93822e-06, No Iterations 1
GAMG:  Solving for p, Initial residual = 0.000151438, Final residual = 1.16849e-05, No Iterations 4
time step continuity errors : sum local = 9.38962e-08, global = -1.26339e-08, cumulative = 2.22821e-06
ExecutionTime = 19 s  ClockTime = 20 s

fieldMinMax minMax write:
    min(mag(U)) = 0 in cell 36960 at location (0.000485708 0 0.05)
    max(mag(U)) = 73.2369 in cell 37929 at location (0.0755642 0.000765377 0.05)

Time = 0.65

smoothSolver:  Solving for Ux, Initial residual = 0.000323894, Final residual = 9.33069e-06, No Iterations 1
smoothSolver:  Solving for Uy, Initial residual = 0.00220013, Final residual = 6.47721e-06, No Iterations 1
GAMG:  Solving for p, Initial residual = 0.00014454, Final residual = 1.15021e-05, No Iterations 4
time step continuity errors : sum local = 9.25361e-08, global = -1.34388e-08, cumulative = 2.21477e-06
ExecutionTime = 19.26 s  ClockTime = 20 s

fieldMinMax minMax write:
    min(mag(U)) = 0 in cell 36960 at location (0.000485708 0 0.05)
    max(mag(U)) = 73.2372 in cell 37929 at location (0.0755642 0.000765377 0.05)

Time = 0.66

smoothSolver:  Solving for Ux, Initial residual = 0.000315681, Final residual = 9.02358e-06, No Iterations 1
smoothSolver:  Solving for Uy, Initial residual = 0.00205094, Final residual = 6.04087e-06, No Iterations 1
GAMG:  Solving for p, Initial residual = 0.000137795, Final residual = 1.13898e-05, No Iterations 4
time step continuity errors : sum local = 9.17343e-08, global = -1.43636e-08, cumulative = 2.20041e-06
ExecutionTime = 19.51 s  ClockTime = 21 s

fieldMinMax minMax write:
    min(mag(U)) = 0 in cell 36960 at location (0.000485708 0 0.05)
    max(mag(U)) = 73.2374 in cell 37929 at location (0.0755642 0.000765377 0.05)

Time = 0.67

smoothSolver:  Solving for Ux, Initial residual = 0.000306435, Final residual = 8.71113e-06, No Iterations 1
smoothSolver:  Solving for Uy, Initial residual = 0.00191024, Final residual = 5.63628e-06, No Iterations 1
GAMG:  Solving for p, Initial residual = 0.00013113, Final residual = 1.11177e-05, No Iterations 4
time step continuity errors : sum local = 8.9633e-08, global = -1.47632e-08, cumulative = 2.18565e-06
ExecutionTime = 19.76 s  ClockTime = 21 s

fieldMinMax minMax write:
    min(mag(U)) = 0 in cell 36960 at location (0.000485708 0 0.05)
    max(mag(U)) = 73.2375 in cell 37929 at location (0.0755642 0.000765377 0.05)

Time = 0.68

smoothSolver:  Solving for Ux, Initial residual = 0.000296217, Final residual = 8.39467e-06, No Iterations 1
smoothSolver:  Solving for Uy, Initial residual = 0.00178, Final residual = 5.26047e-06, No Iterations 1
GAMG:  Solving for p, Initial residual = 0.000124758, Final residual = 1.06987e-05, No Iterations 4
time step continuity errors : sum local = 8.63382e-08, global = -1.47447e-08, cumulative = 2.1709e-06
ExecutionTime = 20 s  ClockTime = 21 s

fieldMinMax minMax write:
    min(mag(U)) = 0 in cell 36960 at location (0.000485708 0 0.05)
    max(mag(U)) = 73.2376 in cell 37929 at location (0.0755642 0.000765377 0.05)

Time = 0.69

smoothSolver:  Solving for Ux, Initial residual = 0.000285082, Final residual = 8.0753e-06, No Iterations 1
smoothSolver:  Solving for Uy, Initial residual = 0.00166092, Final residual = 4.91809e-06, No Iterations 1
GAMG:  Solving for p, Initial residual = 0.000118409, Final residual = 1.01877e-05, No Iterations 4
time step continuity errors : sum local = 8.22884e-08, global = -1.44151e-08, cumulative = 2.15649e-06
ExecutionTime = 20.24 s  ClockTime = 21 s

fieldMinMax minMax write:
    min(mag(U)) = 0 in cell 36960 at location (0.000485708 0 0.05)
    max(mag(U)) = 73.2378 in cell 37929 at location (0.0755642 0.000765377 0.05)

Time = 0.7

smoothSolver:  Solving for Ux, Initial residual = 0.000273161, Final residual = 7.75454e-06, No Iterations 1
smoothSolver:  Solving for Uy, Initial residual = 0.00155412, Final residual = 4.6088e-06, No Iterations 1
GAMG:  Solving for p, Initial residual = 0.000112119, Final residual = 9.63164e-06, No Iterations 4
time step continuity errors : sum local = 7.78593e-08, global = -1.38644e-08, cumulative = 2.14262e-06
ExecutionTime = 20.49 s  ClockTime = 22 s

fieldMinMax minMax write:
    min(mag(U)) = 0 in cell 36960 at location (0.000485708 0 0.05)
    max(mag(U)) = 73.2379 in cell 37929 at location (0.0755642 0.000765377 0.05)

Time = 0.71

smoothSolver:  Solving for Ux, Initial residual = 0.000260615, Final residual = 7.4342e-06, No Iterations 1
smoothSolver:  Solving for Uy, Initial residual = 0.00145953, Final residual = 4.33166e-06, No Iterations 1
GAMG:  Solving for p, Initial residual = 0.00010596, Final residual = 9.03841e-06, No Iterations 4
time step continuity errors : sum local = 7.31159e-08, global = -1.31536e-08, cumulative = 2.12947e-06
ExecutionTime = 20.73 s  ClockTime = 22 s

fieldMinMax minMax write:
    min(mag(U)) = 0 in cell 36960 at location (0.000485708 0 0.05)
    max(mag(U)) = 73.2379 in cell 37929 at location (0.0755642 0.000765377 0.05)

Time = 0.72

smoothSolver:  Solving for Ux, Initial residual = 0.000247616, Final residual = 7.11606e-06, No Iterations 1
smoothSolver:  Solving for Uy, Initial residual = 0.00137719, Final residual = 4.08549e-06, No Iterations 1
GAMG:  Solving for p, Initial residual = 9.97232e-05, Final residual = 8.425e-06, No Iterations 4
time step continuity errors : sum local = 6.81967e-08, global = -1.23333e-08, cumulative = 2.11713e-06
ExecutionTime = 20.98 s  ClockTime = 22 s

fieldMinMax minMax write:
    min(mag(U)) = 0 in cell 36960 at location (0.000485708 0 0.05)
    max(mag(U)) = 73.238 in cell 37929 at location (0.0755642 0.000765377 0.05)

Time = 0.73

smoothSolver:  Solving for Ux, Initial residual = 0.000234335, Final residual = 6.80202e-06, No Iterations 1
smoothSolver:  Solving for Uy, Initial residual = 0.00130651, Final residual = 3.86908e-06, No Iterations 1
GAMG:  Solving for p, Initial residual = 9.36613e-05, Final residual = 7.80866e-06, No Iterations 4
time step continuity errors : sum local = 6.32423e-08, global = -1.14485e-08, cumulative = 2.10569e-06
ExecutionTime = 21.22 s  ClockTime = 22 s

fieldMinMax minMax write:
    min(mag(U)) = 0 in cell 36960 at location (0.000485708 0 0.05)
    max(mag(U)) = 73.238 in cell 37929 at location (0.0755642 0.000765377 0.05)

Time = 0.74

smoothSolver:  Solving for Ux, Initial residual = 0.000220938, Final residual = 6.49374e-06, No Iterations 1
smoothSolver:  Solving for Uy, Initial residual = 0.00124691, Final residual = 3.68018e-06, No Iterations 1
GAMG:  Solving for p, Initial residual = 8.79566e-05, Final residual = 7.20512e-06, No Iterations 4
time step continuity errors : sum local = 5.83821e-08, global = -1.05364e-08, cumulative = 2.09515e-06
ExecutionTime = 21.47 s  ClockTime = 23 s

fieldMinMax minMax write:
    min(mag(U)) = 0 in cell 36960 at location (0.000485708 0 0.05)
    max(mag(U)) = 73.2381 in cell 37929 at location (0.0755642 0.000765377 0.05)

Time = 0.75

smoothSolver:  Solving for Ux, Initial residual = 0.000207574, Final residual = 6.19265e-06, No Iterations 1
smoothSolver:  Solving for Uy, Initial residual = 0.00119734, Final residual = 3.51364e-06, No Iterations 1
GAMG:  Solving for p, Initial residual = 8.23797e-05, Final residual = 6.61851e-06, No Iterations 4
time step continuity errors : sum local = 5.36508e-08, global = -9.62313e-09, cumulative = 2.08553e-06
ExecutionTime = 21.71 s  ClockTime = 23 s

fieldMinMax minMax write:
    min(mag(U)) = 0 in cell 36960 at location (0.000485708 0 0.05)
    max(mag(U)) = 73.2381 in cell 37929 at location (0.0755642 0.000765377 0.05)

Time = 0.76

smoothSolver:  Solving for Ux, Initial residual = 0.000194383, Final residual = 5.89998e-06, No Iterations 1
smoothSolver:  Solving for Uy, Initial residual = 0.00115412, Final residual = 3.36337e-06, No Iterations 1
GAMG:  Solving for p, Initial residual = 7.70971e-05, Final residual = 6.06341e-06, No Iterations 4
time step continuity errors : sum local = 4.91679e-08, global = -8.72495e-09, cumulative = 2.0768e-06
ExecutionTime = 21.95 s  ClockTime = 23 s

fieldMinMax minMax write:
    min(mag(U)) = 0 in cell 36960 at location (0.000485708 0 0.05)
    max(mag(U)) = 73.2381 in cell 37929 at location (0.0755642 0.000765377 0.05)

Time = 0.77

smoothSolver:  Solving for Ux, Initial residual = 0.000181471, Final residual = 5.61666e-06, No Iterations 1
smoothSolver:  Solving for Uy, Initial residual = 0.00111366, Final residual = 3.22445e-06, No Iterations 1
GAMG:  Solving for p, Initial residual = 7.21934e-05, Final residual = 5.54307e-06, No Iterations 4
time step continuity errors : sum local = 4.49614e-08, global = -7.84906e-09, cumulative = 2.06895e-06
ExecutionTime = 22.2 s  ClockTime = 23 s

fieldMinMax minMax write:
    min(mag(U)) = 0 in cell 36960 at location (0.000485708 0 0.05)
    max(mag(U)) = 73.2382 in cell 37929 at location (0.0755642 0.000765377 0.05)

Time = 0.78

smoothSolver:  Solving for Ux, Initial residual = 0.000168938, Final residual = 5.34343e-06, No Iterations 1
smoothSolver:  Solving for Uy, Initial residual = 0.00107425, Final residual = 3.09335e-06, No Iterations 1
GAMG:  Solving for p, Initial residual = 6.75935e-05, Final residual = 5.07664e-06, No Iterations 4
time step continuity errors : sum local = 4.11874e-08, global = -6.99617e-09, cumulative = 2.06196e-06
ExecutionTime = 22.45 s  ClockTime = 24 s

fieldMinMax minMax write:
    min(mag(U)) = 0 in cell 36960 at location (0.000485708 0 0.05)
    max(mag(U)) = 73.2382 in cell 37929 at location (0.0755642 0.000765377 0.05)

Time = 0.79

smoothSolver:  Solving for Ux, Initial residual = 0.00015686, Final residual = 5.08077e-06, No Iterations 1
smoothSolver:  Solving for Uy, Initial residual = 0.00103539, Final residual = 2.96779e-06, No Iterations 1
GAMG:  Solving for p, Initial residual = 6.32434e-05, Final residual = 4.66679e-06, No Iterations 4
time step continuity errors : sum local = 3.7869e-08, global = -6.16575e-09, cumulative = 2.05579e-06
ExecutionTime = 22.7 s  ClockTime = 24 s

fieldMinMax minMax write:
    min(mag(U)) = 0 in cell 36960 at location (0.000485708 0 0.05)
    max(mag(U)) = 73.2382 in cell 37929 at location (0.0755642 0.000765377 0.05)

Time = 0.8

smoothSolver:  Solving for Ux, Initial residual = 0.00014528, Final residual = 4.82901e-06, No Iterations 1
smoothSolver:  Solving for Uy, Initial residual = 0.000997006, Final residual = 2.84612e-06, No Iterations 1
GAMG:  Solving for p, Initial residual = 5.91379e-05, Final residual = 4.31845e-06, No Iterations 4
time step continuity errors : sum local = 3.5047e-08, global = -5.36748e-09, cumulative = 2.05042e-06
ExecutionTime = 22.96 s  ClockTime = 24 s

fieldMinMax minMax write:
    min(mag(U)) = 0 in cell 36960 at location (0.000485708 0 0.05)
    max(mag(U)) = 73.2382 in cell 37929 at location (0.0755642 0.000765377 0.05)

Time = 0.81

smoothSolver:  Solving for Ux, Initial residual = 0.000134252, Final residual = 4.58826e-06, No Iterations 1
smoothSolver:  Solving for Uy, Initial residual = 0.00095916, Final residual = 2.72732e-06, No Iterations 1
GAMG:  Solving for p, Initial residual = 5.52932e-05, Final residual = 4.01867e-06, No Iterations 4
time step continuity errors : sum local = 3.2617e-08, global = -4.63706e-09, cumulative = 2.04579e-06
ExecutionTime = 23.21 s  ClockTime = 24 s

fieldMinMax minMax write:
    min(mag(U)) = 0 in cell 36960 at location (0.000485708 0 0.05)
    max(mag(U)) = 73.2382 in cell 37929 at location (0.0755642 0.000765377 0.05)

Time = 0.82

smoothSolver:  Solving for Ux, Initial residual = 0.0001238, Final residual = 4.3585e-06, No Iterations 1
smoothSolver:  Solving for Uy, Initial residual = 0.000921942, Final residual = 2.61099e-06, No Iterations 1
GAMG:  Solving for p, Initial residual = 5.18232e-05, Final residual = 3.7779e-06, No Iterations 4
time step continuity errors : sum local = 3.06641e-08, global = -4.03901e-09, cumulative = 2.04175e-06
ExecutionTime = 23.46 s  ClockTime = 25 s

fieldMinMax minMax write:
    min(mag(U)) = 0 in cell 36960 at location (0.000485708 0 0.05)
    max(mag(U)) = 73.2382 in cell 37929 at location (0.0755642 0.000765377 0.05)

Time = 0.83

smoothSolver:  Solving for Ux, Initial residual = 0.000113941, Final residual = 4.13962e-06, No Iterations 1
smoothSolver:  Solving for Uy, Initial residual = 0.000885412, Final residual = 2.49698e-06, No Iterations 1
GAMG:  Solving for p, Initial residual = 4.86249e-05, Final residual = 3.58381e-06, No Iterations 4
time step continuity errors : sum local = 2.9089e-08, global = -3.62749e-09, cumulative = 2.03812e-06
ExecutionTime = 23.71 s  ClockTime = 25 s

fieldMinMax minMax write:
    min(mag(U)) = 0 in cell 36960 at location (0.000485708 0 0.05)
    max(mag(U)) = 73.2382 in cell 37929 at location (0.0755642 0.000765377 0.05)

Time = 0.84

smoothSolver:  Solving for Ux, Initial residual = 0.000104699, Final residual = 3.93141e-06, No Iterations 1
smoothSolver:  Solving for Uy, Initial residual = 0.000849598, Final residual = 2.38531e-06, No Iterations 1
GAMG:  Solving for p, Initial residual = 4.56388e-05, Final residual = 3.39674e-06, No Iterations 4
time step continuity errors : sum local = 2.75698e-08, global = -3.37267e-09, cumulative = 2.03475e-06
ExecutionTime = 23.96 s  ClockTime = 25 s

fieldMinMax minMax write:
    min(mag(U)) = 0 in cell 36960 at location (0.000485708 0 0.05)
    max(mag(U)) = 73.2382 in cell 37929 at location (0.0755642 0.000765377 0.05)

Time = 0.85

smoothSolver:  Solving for Ux, Initial residual = 9.60992e-05, Final residual = 3.73365e-06, No Iterations 1
smoothSolver:  Solving for Uy, Initial residual = 0.000814484, Final residual = 2.27603e-06, No Iterations 1
GAMG:  Solving for p, Initial residual = 4.29413e-05, Final residual = 3.22229e-06, No Iterations 4
time step continuity errors : sum local = 2.61522e-08, global = -3.26911e-09, cumulative = 2.03148e-06
ExecutionTime = 24.21 s  ClockTime = 25 s

fieldMinMax minMax write:
    min(mag(U)) = 0 in cell 36960 at location (0.000485708 0 0.05)
    max(mag(U)) = 73.2382 in cell 37929 at location (0.0755642 0.000765377 0.05)

Time = 0.86

smoothSolver:  Solving for Ux, Initial residual = 8.81174e-05, Final residual = 3.54598e-06, No Iterations 1
smoothSolver:  Solving for Uy, Initial residual = 0.000780057, Final residual = 2.16928e-06, No Iterations 1
GAMG:  Solving for p, Initial residual = 4.0526e-05, Final residual = 3.08081e-06, No Iterations 4
time step continuity errors : sum local = 2.50019e-08, global = -3.28921e-09, cumulative = 2.02819e-06
ExecutionTime = 24.46 s  ClockTime = 26 s

fieldMinMax minMax write:
    min(mag(U)) = 0 in cell 36960 at location (0.000485708 0 0.05)
    max(mag(U)) = 73.2382 in cell 37929 at location (0.0755642 0.000765377 0.05)

Time = 0.87

smoothSolver:  Solving for Ux, Initial residual = 8.06283e-05, Final residual = 3.3681e-06, No Iterations 1
smoothSolver:  Solving for Uy, Initial residual = 0.000746286, Final residual = 2.06505e-06, No Iterations 1
GAMG:  Solving for p, Initial residual = 3.82733e-05, Final residual = 2.98044e-06, No Iterations 4
time step continuity errors : sum local = 2.41849e-08, global = -3.51882e-09, cumulative = 2.02467e-06
ExecutionTime = 24.71 s  ClockTime = 26 s

fieldMinMax minMax write:
    min(mag(U)) = 0 in cell 36960 at location (0.000485708 0 0.05)
    max(mag(U)) = 73.2382 in cell 37929 at location (0.0755642 0.000765377 0.05)

Time = 0.88

smoothSolver:  Solving for Ux, Initial residual = 7.36507e-05, Final residual = 3.19962e-06, No Iterations 1
smoothSolver:  Solving for Uy, Initial residual = 0.000713115, Final residual = 1.96342e-06, No Iterations 1
GAMG:  Solving for p, Initial residual = 3.6176e-05, Final residual = 2.91484e-06, No Iterations 4
time step continuity errors : sum local = 2.36498e-08, global = -3.9341e-09, cumulative = 2.02074e-06
ExecutionTime = 24.97 s  ClockTime = 26 s

fieldMinMax minMax write:
    min(mag(U)) = 0 in cell 36960 at location (0.000485708 0 0.05)
    max(mag(U)) = 73.2383 in cell 37929 at location (0.0755642 0.000765377 0.05)

Time = 0.89

smoothSolver:  Solving for Ux, Initial residual = 6.73043e-05, Final residual = 3.04023e-06, No Iterations 1
smoothSolver:  Solving for Uy, Initial residual = 0.000680471, Final residual = 1.86467e-06, No Iterations 1
GAMG:  Solving for p, Initial residual = 3.42151e-05, Final residual = 2.87858e-06, No Iterations 4
time step continuity errors : sum local = 2.33524e-08, global = -4.45978e-09, cumulative = 2.01628e-06
ExecutionTime = 25.21 s  ClockTime = 26 s

fieldMinMax minMax write:
    min(mag(U)) = 0 in cell 36960 at location (0.000485708 0 0.05)
    max(mag(U)) = 73.2383 in cell 37929 at location (0.0755642 0.000765377 0.05)

Time = 0.9

smoothSolver:  Solving for Ux, Initial residual = 6.15237e-05, Final residual = 2.8896e-06, No Iterations 1
smoothSolver:  Solving for Uy, Initial residual = 0.000648388, Final residual = 1.76906e-06, No Iterations 1
GAMG:  Solving for p, Initial residual = 3.24173e-05, Final residual = 2.83122e-06, No Iterations 4
time step continuity errors : sum local = 2.29648e-08, global = -4.89315e-09, cumulative = 2.01138e-06
ExecutionTime = 25.46 s  ClockTime = 27 s

fieldMinMax minMax write:
    min(mag(U)) = 0 in cell 36960 at location (0.000485708 0 0.05)
    max(mag(U)) = 73.2383 in cell 37929 at location (0.0755642 0.000765377 0.05)

Time = 0.91

smoothSolver:  Solving for Ux, Initial residual = 5.63355e-05, Final residual = 2.74747e-06, No Iterations 1
smoothSolver:  Solving for Uy, Initial residual = 0.000616957, Final residual = 1.67619e-06, No Iterations 1
GAMG:  Solving for p, Initial residual = 3.0779e-05, Final residual = 2.78208e-06, No Iterations 4
time step continuity errors : sum local = 2.25626e-08, global = -5.23268e-09, cumulative = 2.00615e-06
ExecutionTime = 25.71 s  ClockTime = 27 s

fieldMinMax minMax write:
    min(mag(U)) = 0 in cell 36960 at location (0.000485708 0 0.05)
    max(mag(U)) = 73.2383 in cell 37929 at location (0.0755642 0.000765377 0.05)

Time = 0.92

smoothSolver:  Solving for Ux, Initial residual = 5.1745e-05, Final residual = 2.61379e-06, No Iterations 1
smoothSolver:  Solving for Uy, Initial residual = 0.000586277, Final residual = 1.58577e-06, No Iterations 1
GAMG:  Solving for p, Initial residual = 2.92784e-05, Final residual = 2.74059e-06, No Iterations 4
time step continuity errors : sum local = 2.22225e-08, global = -5.49187e-09, cumulative = 2.00066e-06
ExecutionTime = 25.96 s  ClockTime = 27 s

fieldMinMax minMax write:
    min(mag(U)) = 0 in cell 36960 at location (0.000485708 0 0.05)
    max(mag(U)) = 73.2383 in cell 37929 at location (0.0755642 0.000765377 0.05)

Time = 0.93

smoothSolver:  Solving for Ux, Initial residual = 4.77671e-05, Final residual = 2.48853e-06, No Iterations 1
smoothSolver:  Solving for Uy, Initial residual = 0.000556407, Final residual = 1.49778e-06, No Iterations 1
GAMG:  Solving for p, Initial residual = 2.78982e-05, Final residual = 2.70213e-06, No Iterations 4
time step continuity errors : sum local = 2.1907e-08, global = -5.66994e-09, cumulative = 1.99499e-06
ExecutionTime = 26.21 s  ClockTime = 27 s

fieldMinMax minMax write:
    min(mag(U)) = 0 in cell 36960 at location (0.000485708 0 0.05)
    max(mag(U)) = 73.2383 in cell 37929 at location (0.0755642 0.000765377 0.05)

Time = 0.94

smoothSolver:  Solving for Ux, Initial residual = 4.44043e-05, Final residual = 2.37169e-06, No Iterations 1
smoothSolver:  Solving for Uy, Initial residual = 0.000527354, Final residual = 1.41235e-06, No Iterations 1
GAMG:  Solving for p, Initial residual = 2.65628e-05, Final residual = 1.53775e-06, No Iterations 5
time step continuity errors : sum local = 1.24649e-08, global = 2.53881e-09, cumulative = 1.99753e-06
ExecutionTime = 26.49 s  ClockTime = 28 s

fieldMinMax minMax write:
    min(mag(U)) = 0 in cell 36960 at location (0.000485708 0 0.05)
    max(mag(U)) = 73.2383 in cell 37929 at location (0.0755642 0.000765377 0.05)

Time = 0.95

smoothSolver:  Solving for Ux, Initial residual = 4.16242e-05, Final residual = 2.26276e-06, No Iterations 1
smoothSolver:  Solving for Uy, Initial residual = 0.00049871, Final residual = 1.3274e-06, No Iterations 1
GAMG:  Solving for p, Initial residual = 2.48426e-05, Final residual = 2.24581e-06, No Iterations 4
time step continuity errors : sum local = 1.82014e-08, global = -4.4961e-09, cumulative = 1.99303e-06
ExecutionTime = 26.81 s  ClockTime = 28 s

fieldMinMax minMax write:
    min(mag(U)) = 0 in cell 36960 at location (0.000485708 0 0.05)
    max(mag(U)) = 73.2383 in cell 37929 at location (0.0755642 0.000765377 0.05)

Time = 0.96

smoothSolver:  Solving for Ux, Initial residual = 3.944e-05, Final residual = 2.16265e-06, No Iterations 1
smoothSolver:  Solving for Uy, Initial residual = 0.000471267, Final residual = 1.24999e-06, No Iterations 1
GAMG:  Solving for p, Initial residual = 2.37503e-05, Final residual = 2.30136e-06, No Iterations 4
time step continuity errors : sum local = 1.86483e-08, global = -4.94001e-09, cumulative = 1.98809e-06
ExecutionTime = 27.08 s  ClockTime = 28 s

fieldMinMax minMax write:
    min(mag(U)) = 0 in cell 36960 at location (0.000485708 0 0.05)
    max(mag(U)) = 73.2383 in cell 37929 at location (0.0755642 0.000765377 0.05)

Time = 0.97

smoothSolver:  Solving for Ux, Initial residual = 3.76782e-05, Final residual = 2.07045e-06, No Iterations 1
smoothSolver:  Solving for Uy, Initial residual = 0.000445306, Final residual = 1.17719e-06, No Iterations 1
GAMG:  Solving for p, Initial residual = 2.27953e-05, Final residual = 1.42622e-06, No Iterations 5
time step continuity errors : sum local = 1.15552e-08, global = 2.5406e-09, cumulative = 1.99063e-06
ExecutionTime = 27.37 s  ClockTime = 29 s

fieldMinMax minMax write:
    min(mag(U)) = 0 in cell 36960 at location (0.000485708 0 0.05)
    max(mag(U)) = 73.2383 in cell 37929 at location (0.0755642 0.000765377 0.05)

Time = 0.98

smoothSolver:  Solving for Ux, Initial residual = 3.6324e-05, Final residual = 1.98492e-06, No Iterations 1
smoothSolver:  Solving for Uy, Initial residual = 0.000419233, Final residual = 1.10455e-06, No Iterations 1
GAMG:  Solving for p, Initial residual = 2.12869e-05, Final residual = 2.0259e-06, No Iterations 4
time step continuity errors : sum local = 1.64113e-08, global = -4.10417e-09, cumulative = 1.98653e-06
ExecutionTime = 27.63 s  ClockTime = 29 s

fieldMinMax minMax write:
    min(mag(U)) = 0 in cell 36960 at location (0.000485708 0 0.05)
    max(mag(U)) = 73.2383 in cell 37929 at location (0.0755642 0.000765377 0.05)

Time = 0.99

smoothSolver:  Solving for Ux, Initial residual = 3.52769e-05, Final residual = 1.90575e-06, No Iterations 1
smoothSolver:  Solving for Uy, Initial residual = 0.000393986, Final residual = 1.04222e-06, No Iterations 1
GAMG:  Solving for p, Initial residual = 2.03492e-05, Final residual = 1.23375e-06, No Iterations 5
time step continuity errors : sum local = 9.9926e-09, global = 2.24548e-09, cumulative = 1.98877e-06
ExecutionTime = 27.9 s  ClockTime = 29 s

fieldMinMax minMax write:
    min(mag(U)) = 0 in cell 36960 at location (0.000485708 0 0.05)
    max(mag(U)) = 73.2383 in cell 37929 at location (0.0755642 0.000765377 0.05)

Time = 1

smoothSolver:  Solving for Ux, Initial residual = 3.43206e-05, Final residual = 1.83136e-06, No Iterations 1
smoothSolver:  Solving for Uy, Initial residual = 0.000370059, Final residual = 9.83221e-07, No Iterations 1
GAMG:  Solving for p, Initial residual = 1.91039e-05, Final residual = 1.8117e-06, No Iterations 4
time step continuity errors : sum local = 1.46718e-08, global = -3.40085e-09, cumulative = 1.98537e-06
ExecutionTime = 28.51 s  ClockTime = 30 s

fieldMinMax minMax write:
    min(mag(U)) = 0 in cell 36960 at location (0.000485708 0 0.05)
    max(mag(U)) = 73.2383 in cell 37929 at location (0.0755642 0.000765377 0.05)

yPlus yPlus write:
    writing field yPlus
    patch topWall y+ : min = 0.0225451, max = 0.219785, average = 0.193731
    patch bottomWall y+ : min = 7.9272, max = 27.4689, average = 13.2999
writeCellCentres writeCellCentres write:
    writing cell-volumes field C to 1
    Writing the x component field of the cell-centres Cx to 1
    Writing the y component field of the cell-centres Cy to 1
    Writing the z component field of the cell-centres Cz to 1
wallShearStress wallShearStress write:
    writing field wallShearStress
    min/max(topWall) = (-7.03996e-10 -8.95224e-07 0), (4.57621e-09 -9.83423e-09 0)
    min/max(bottomWall) = (-6.29317 -0.0286678 0), (-0.524061 0.00198388 0)
Time = 1.01

smoothSolver:  Solving for Ux, Initial residual = 3.3533e-05, Final residual = 1.7621e-06, No Iterations 1
smoothSolver:  Solving for Uy, Initial residual = 0.000346846, Final residual = 9.3087e-07, No Iterations 1
GAMG:  Solving for p, Initial residual = 1.82031e-05, Final residual = 1.14237e-06, No Iterations 5
time step continuity errors : sum local = 9.24997e-09, global = 2.05108e-09, cumulative = 1.98742e-06
ExecutionTime = 29.19 s  ClockTime = 31 s

fieldMinMax minMax write:
    min(mag(U)) = 0 in cell 36960 at location (0.000485708 0 0.05)
    max(mag(U)) = 73.2383 in cell 37929 at location (0.0755642 0.000765377 0.05)

Time = 1.02

smoothSolver:  Solving for Ux, Initial residual = 3.27531e-05, Final residual = 1.69665e-06, No Iterations 1
smoothSolver:  Solving for Uy, Initial residual = 0.000324993, Final residual = 8.81597e-07, No Iterations 1
GAMG:  Solving for p, Initial residual = 1.7053e-05, Final residual = 1.62684e-06, No Iterations 4
time step continuity errors : sum local = 1.31713e-08, global = -2.88639e-09, cumulative = 1.98454e-06
ExecutionTime = 29.46 s  ClockTime = 31 s

fieldMinMax minMax write:
    min(mag(U)) = 0 in cell 36960 at location (0.000485708 0 0.05)
    max(mag(U)) = 73.2383 in cell 37929 at location (0.0755642 0.000765377 0.05)

Time = 1.03

smoothSolver:  Solving for Ux, Initial residual = 3.2073e-05, Final residual = 1.63525e-06, No Iterations 1
smoothSolver:  Solving for Uy, Initial residual = 0.00030427, Final residual = 8.39201e-07, No Iterations 1
GAMG:  Solving for p, Initial residual = 1.61493e-05, Final residual = 1.03378e-06, No Iterations 5
time step continuity errors : sum local = 8.36879e-09, global = 1.87603e-09, cumulative = 1.98641e-06
ExecutionTime = 29.8 s  ClockTime = 32 s

fieldMinMax minMax write:
    min(mag(U)) = 0 in cell 36960 at location (0.000485708 0 0.05)
    max(mag(U)) = 73.2383 in cell 37929 at location (0.0755642 0.000765377 0.05)

Time = 1.04

smoothSolver:  Solving for Ux, Initial residual = 3.13751e-05, Final residual = 1.57678e-06, No Iterations 1
smoothSolver:  Solving for Uy, Initial residual = 0.00028497, Final residual = 7.99783e-07, No Iterations 1
GAMG:  Solving for p, Initial residual = 1.51532e-05, Final residual = 1.41148e-06, No Iterations 4
time step continuity errors : sum local = 1.14252e-08, global = -2.35565e-09, cumulative = 1.98406e-06
ExecutionTime = 30.07 s  ClockTime = 32 s

fieldMinMax minMax write:
    min(mag(U)) = 0 in cell 36960 at location (0.000485708 0 0.05)
    max(mag(U)) = 73.2383 in cell 37929 at location (0.0755642 0.000765377 0.05)

Time = 1.05

smoothSolver:  Solving for Ux, Initial residual = 3.06784e-05, Final residual = 1.52085e-06, No Iterations 1
smoothSolver:  Solving for Uy, Initial residual = 0.000267024, Final residual = 7.66616e-07, No Iterations 1
GAMG:  Solving for p, Initial residual = 1.43079e-05, Final residual = 9.10016e-07, No Iterations 5
time step continuity errors : sum local = 7.36545e-09, global = 1.7055e-09, cumulative = 1.98576e-06
ExecutionTime = 30.34 s  ClockTime = 32 s

fieldMinMax minMax write:
    min(mag(U)) = 0 in cell 36960 at location (0.000485708 0 0.05)
    max(mag(U)) = 73.2384 in cell 37929 at location (0.0755642 0.000765377 0.05)

Time = 1.06

smoothSolver:  Solving for Ux, Initial residual = 2.99366e-05, Final residual = 1.46584e-06, No Iterations 1
smoothSolver:  Solving for Uy, Initial residual = 0.00025053, Final residual = 7.35826e-07, No Iterations 1
GAMG:  Solving for p, Initial residual = 1.34491e-05, Final residual = 1.19145e-06, No Iterations 4
time step continuity errors : sum local = 9.64255e-09, global = -1.89721e-09, cumulative = 1.98387e-06
ExecutionTime = 30.68 s  ClockTime = 33 s

fieldMinMax minMax write:
    min(mag(U)) = 0 in cell 36960 at location (0.000485708 0 0.05)
    max(mag(U)) = 73.2384 in cell 37929 at location (0.0755642 0.000765377 0.05)

Time = 1.07

smoothSolver:  Solving for Ux, Initial residual = 2.9084e-05, Final residual = 1.41069e-06, No Iterations 1
smoothSolver:  Solving for Uy, Initial residual = 0.000235539, Final residual = 7.10748e-07, No Iterations 1
GAMG:  Solving for p, Initial residual = 1.26265e-05, Final residual = 1.24089e-06, No Iterations 4
time step continuity errors : sum local = 1.0042e-08, global = -2.31158e-09, cumulative = 1.98155e-06
ExecutionTime = 30.96 s  ClockTime = 33 s

fieldMinMax minMax write:
    min(mag(U)) = 0 in cell 36960 at location (0.000485708 0 0.05)
    max(mag(U)) = 73.2384 in cell 37929 at location (0.0755642 0.000765377 0.05)

Time = 1.08

smoothSolver:  Solving for Ux, Initial residual = 2.81388e-05, Final residual = 1.35565e-06, No Iterations 1
smoothSolver:  Solving for Uy, Initial residual = 0.00022224, Final residual = 6.8905e-07, No Iterations 1
GAMG:  Solving for p, Initial residual = 1.19882e-05, Final residual = 7.79844e-07, No Iterations 5
time step continuity errors : sum local = 6.3106e-09, global = 1.56858e-09, cumulative = 1.98312e-06
ExecutionTime = 31.28 s  ClockTime = 33 s

fieldMinMax minMax write:
    min(mag(U)) = 0 in cell 36960 at location (0.000485708 0 0.05)
    max(mag(U)) = 73.2384 in cell 37929 at location (0.0755642 0.000765377 0.05)

Time = 1.09

smoothSolver:  Solving for Ux, Initial residual = 2.71848e-05, Final residual = 1.30145e-06, No Iterations 1
smoothSolver:  Solving for Uy, Initial residual = 0.000209775, Final residual = 6.67227e-07, No Iterations 1
GAMG:  Solving for p, Initial residual = 1.11082e-05, Final residual = 9.1093e-07, No Iterations 4
time step continuity errors : sum local = 7.37105e-09, global = -1.40992e-09, cumulative = 1.98171e-06
ExecutionTime = 31.57 s  ClockTime = 33 s

fieldMinMax minMax write:
    min(mag(U)) = 0 in cell 36960 at location (0.000485708 0 0.05)
    max(mag(U)) = 73.2384 in cell 37929 at location (0.0755642 0.000765377 0.05)

Time = 1.1

smoothSolver:  Solving for Ux, Initial residual = 2.61124e-05, Final residual = 1.24736e-06, No Iterations 1
smoothSolver:  Solving for Uy, Initial residual = 0.000199331, Final residual = 6.51957e-07, No Iterations 1
GAMG:  Solving for p, Initial residual = 1.03627e-05, Final residual = 9.37974e-07, No Iterations 4
time step continuity errors : sum local = 7.58964e-09, global = -1.65601e-09, cumulative = 1.98006e-06
ExecutionTime = 31.83 s  ClockTime = 34 s

fieldMinMax minMax write:
    min(mag(U)) = 0 in cell 36960 at location (0.000485708 0 0.05)
    max(mag(U)) = 73.2384 in cell 37929 at location (0.0755642 0.000765377 0.05)

Time = 1.11

smoothSolver:  Solving for Ux, Initial residual = 2.49949e-05, Final residual = 1.19392e-06, No Iterations 1
smoothSolver:  Solving for Uy, Initial residual = 0.00019033, Final residual = 6.37097e-07, No Iterations 1
GAMG:  Solving for p, Initial residual = 9.78867e-06, Final residual = 9.15344e-07, No Iterations 4
time step continuity errors : sum local = 7.40636e-09, global = -1.62664e-09, cumulative = 1.97843e-06
ExecutionTime = 32.11 s  ClockTime = 34 s

fieldMinMax minMax write:
    min(mag(U)) = 0 in cell 36960 at location (0.000485708 0 0.05)
    max(mag(U)) = 73.2384 in cell 37929 at location (0.0755642 0.000765377 0.05)

Time = 1.12

smoothSolver:  Solving for Ux, Initial residual = 2.3873e-05, Final residual = 1.14152e-06, No Iterations 1
smoothSolver:  Solving for Uy, Initial residual = 0.000182073, Final residual = 6.20259e-07, No Iterations 1
GAMG:  Solving for p, Initial residual = 9.14768e-06, Final residual = 8.49098e-07, No Iterations 4
time step continuity errors : sum local = 6.87028e-09, global = -1.48936e-09, cumulative = 1.97694e-06
ExecutionTime = 32.36 s  ClockTime = 34 s

fieldMinMax minMax write:
    min(mag(U)) = 0 in cell 36960 at location (0.000485708 0 0.05)
    max(mag(U)) = 73.2384 in cell 37929 at location (0.0755642 0.000765377 0.05)

Time = 1.13

smoothSolver:  Solving for Ux, Initial residual = 2.27313e-05, Final residual = 1.09009e-06, No Iterations 1
smoothSolver:  Solving for Uy, Initial residual = 0.000174143, Final residual = 6.03049e-07, No Iterations 1
GAMG:  Solving for p, Initial residual = 8.52442e-06, Final residual = 7.70943e-07, No Iterations 4
time step continuity errors : sum local = 6.23791e-09, global = -1.31694e-09, cumulative = 1.97562e-06
ExecutionTime = 32.61 s  ClockTime = 35 s

fieldMinMax minMax write:
    min(mag(U)) = 0 in cell 36960 at location (0.000485708 0 0.05)
    max(mag(U)) = 73.2384 in cell 37929 at location (0.0755642 0.000765377 0.05)

Time = 1.14

smoothSolver:  Solving for Ux, Initial residual = 2.15838e-05, Final residual = 1.03976e-06, No Iterations 1
smoothSolver:  Solving for Uy, Initial residual = 0.000166411, Final residual = 5.8548e-07, No Iterations 1
GAMG:  Solving for p, Initial residual = 7.9336e-06, Final residual = 6.9481e-07, No Iterations 4
time step continuity errors : sum local = 5.62196e-09, global = -1.15673e-09, cumulative = 1.97447e-06
ExecutionTime = 32.86 s  ClockTime = 35 s

fieldMinMax minMax write:
    min(mag(U)) = 0 in cell 36960 at location (0.000485708 0 0.05)
    max(mag(U)) = 73.2384 in cell 37929 at location (0.0755642 0.000765377 0.05)

Time = 1.15

smoothSolver:  Solving for Ux, Initial residual = 2.04445e-05, Final residual = 9.90692e-07, No Iterations 1
smoothSolver:  Solving for Uy, Initial residual = 0.000158827, Final residual = 5.67416e-07, No Iterations 1
GAMG:  Solving for p, Initial residual = 7.3683e-06, Final residual = 6.24713e-07, No Iterations 4
time step continuity errors : sum local = 5.05487e-09, global = -1.02352e-09, cumulative = 1.97344e-06
ExecutionTime = 33.12 s  ClockTime = 35 s

fieldMinMax minMax write:
    min(mag(U)) = 0 in cell 36960 at location (0.000485708 0 0.05)
    max(mag(U)) = 73.2384 in cell 37929 at location (0.0755642 0.000765377 0.05)

Time = 1.16

smoothSolver:  Solving for Ux, Initial residual = 1.93214e-05, Final residual = 9.43007e-07, No Iterations 1
smoothSolver:  Solving for Uy, Initial residual = 0.000151388, Final residual = 5.48822e-07, No Iterations 1
GAMG:  Solving for p, Initial residual = 6.82924e-06, Final residual = 5.60128e-07, No Iterations 4
time step continuity errors : sum local = 4.53242e-09, global = -9.07941e-10, cumulative = 1.97254e-06
ExecutionTime = 33.37 s  ClockTime = 35 s

fieldMinMax minMax write:
    min(mag(U)) = 0 in cell 36960 at location (0.000485708 0 0.05)
    max(mag(U)) = 73.2384 in cell 37929 at location (0.0755642 0.000765377 0.05)

Time = 1.17

smoothSolver:  Solving for Ux, Initial residual = 1.82246e-05, Final residual = 8.96827e-07, No Iterations 1
smoothSolver:  Solving for Uy, Initial residual = 0.000144096, Final residual = 5.29731e-07, No Iterations 1
GAMG:  Solving for p, Initial residual = 6.31865e-06, Final residual = 5.03818e-07, No Iterations 4
time step continuity errors : sum local = 4.07693e-09, global = -8.19856e-10, cumulative = 1.97172e-06
ExecutionTime = 33.63 s  ClockTime = 36 s

fieldMinMax minMax write:
    min(mag(U)) = 0 in cell 36960 at location (0.000485708 0 0.05)
    max(mag(U)) = 73.2384 in cell 37929 at location (0.0755642 0.000765377 0.05)

Time = 1.18

smoothSolver:  Solving for Ux, Initial residual = 1.71622e-05, Final residual = 8.52258e-07, No Iterations 1
smoothSolver:  Solving for Uy, Initial residual = 0.000136978, Final residual = 5.10262e-07, No Iterations 1
GAMG:  Solving for p, Initial residual = 5.83945e-06, Final residual = 4.56491e-07, No Iterations 4
time step continuity errors : sum local = 3.69412e-09, global = -7.52886e-10, cumulative = 1.97096e-06
ExecutionTime = 33.88 s  ClockTime = 36 s

fieldMinMax minMax write:
    min(mag(U)) = 0 in cell 36960 at location (0.000485708 0 0.05)
    max(mag(U)) = 73.2384 in cell 37929 at location (0.0755642 0.000765377 0.05)

Time = 1.19

smoothSolver:  Solving for Ux, Initial residual = 1.61437e-05, Final residual = 8.09343e-07, No Iterations 1
smoothSolver:  Solving for Uy, Initial residual = 0.000130036, Final residual = 4.90472e-07, No Iterations 1
GAMG:  Solving for p, Initial residual = 5.40178e-06, Final residual = 4.17739e-07, No Iterations 4
time step continuity errors : sum local = 3.38069e-09, global = -6.94493e-10, cumulative = 1.97027e-06
ExecutionTime = 34.13 s  ClockTime = 36 s

[...]
ExecutionTime = 1369.63 s  ClockTime = 1496 s

fieldMinMax minMax write:
    min(mag(U)) = 0 in cell 36960 at location (0.000485708 0 0.05)
    max(mag(U)) = 73.2384 in cell 37929 at location (0.0755642 0.000765377 0.05)

Time = 59.72

smoothSolver:  Solving for Ux, Initial residual = 6.83147e-11, Final residual = 6.83147e-11, No Iterations 0
smoothSolver:  Solving for Uy, Initial residual = 7.3984e-11, Final residual = 7.3984e-11, No Iterations 0
GAMG:  Solving for p, Initial residual = 7.58913e-11, Final residual = 7.58913e-11, No Iterations 0
time step continuity errors : sum local = 6.16474e-13, global = 1.27858e-18, cumulative = 1.95932e-06
ExecutionTime = 1369.85 s  ClockTime = 1496 s

fieldMinMax minMax write:
    min(mag(U)) = 0 in cell 36960 at location (0.000485708 0 0.05)
    max(mag(U)) = 73.2384 in cell 37929 at location (0.0755642 0.000765377 0.05)

Time = 59.73

smoothSolver:  Solving for Ux, Initial residual = 9.85514e-11, Final residual = 9.85514e-11, No Iterations 0
smoothSolver:  Solving for Uy, Initial residual = 1.06614e-10, Final residual = 2.99335e-13, No Iterations 1
GAMG:  Solving for p, Initial residual = 8.91808e-10, Final residual = 1.05423e-12, No Iterations 1
time step continuity errors : sum local = 1.80134e-14, global = -2.65414e-16, cumulative = 1.95932e-06
ExecutionTime = 1370.17 s  ClockTime = 1496 s

fieldMinMax minMax write:
    min(mag(U)) = 0 in cell 36960 at location (0.000485708 0 0.05)
    max(mag(U)) = 73.2384 in cell 37929 at location (0.0755642 0.000765377 0.05)

Time = 59.74

smoothSolver:  Solving for Ux, Initial residual = 1.3773e-10, Final residual = 6.99429e-13, No Iterations 1
smoothSolver:  Solving for Uy, Initial residual = 1.15767e-10, Final residual = 3.38863e-13, No Iterations 1
GAMG:  Solving for p, Initial residual = 1.72006e-10, Final residual = 5.47179e-13, No Iterations 1
time step continuity errors : sum local = 1.42576e-14, global = 1.31548e-16, cumulative = 1.95932e-06
ExecutionTime = 1370.44 s  ClockTime = 1496 s

fieldMinMax minMax write:
    min(mag(U)) = 0 in cell 36960 at location (0.000485708 0 0.05)
    max(mag(U)) = 73.2384 in cell 37929 at location (0.0755642 0.000765377 0.05)

Time = 59.75

smoothSolver:  Solving for Ux, Initial residual = 7.20315e-11, Final residual = 7.20315e-11, No Iterations 0
smoothSolver:  Solving for Uy, Initial residual = 7.03117e-11, Final residual = 7.03117e-11, No Iterations 0
GAMG:  Solving for p, Initial residual = 1.37809e-10, Final residual = 4.24798e-13, No Iterations 1
time step continuity errors : sum local = 1.35135e-14, global = 1.62282e-16, cumulative = 1.95932e-06
ExecutionTime = 1370.71 s  ClockTime = 1497 s

fieldMinMax minMax write:
    min(mag(U)) = 0 in cell 36960 at location (0.000485708 0 0.05)
    max(mag(U)) = 73.2384 in cell 37929 at location (0.0755642 0.000765377 0.05)

Time = 59.76

smoothSolver:  Solving for Ux, Initial residual = 1.01179e-10, Final residual = 5.56844e-13, No Iterations 1
smoothSolver:  Solving for Uy, Initial residual = 1.06224e-10, Final residual = 3.11673e-13, No Iterations 1
GAMG:  Solving for p, Initial residual = 5.45518e-11, Final residual = 5.45518e-11, No Iterations 0
time step continuity errors : sum local = 4.43819e-13, global = 6.94083e-17, cumulative = 1.95932e-06
ExecutionTime = 1370.92 s  ClockTime = 1497 s

fieldMinMax minMax write:
    min(mag(U)) = 0 in cell 36960 at location (0.000485708 0 0.05)
    max(mag(U)) = 73.2384 in cell 37929 at location (0.0755642 0.000765377 0.05)

Time = 59.77

smoothSolver:  Solving for Ux, Initial residual = 5.34674e-11, Final residual = 5.34674e-11, No Iterations 0
smoothSolver:  Solving for Uy, Initial residual = 5.58191e-11, Final residual = 5.58191e-11, No Iterations 0
GAMG:  Solving for p, Initial residual = 6.83238e-11, Final residual = 6.83238e-11, No Iterations 0
time step continuity errors : sum local = 5.55192e-13, global = 1.21985e-16, cumulative = 1.95932e-06
ExecutionTime = 1371.11 s  ClockTime = 1497 s

fieldMinMax minMax write:
    min(mag(U)) = 0 in cell 36960 at location (0.000485708 0 0.05)
    max(mag(U)) = 73.2384 in cell 37929 at location (0.0755642 0.000765377 0.05)

Time = 59.78

smoothSolver:  Solving for Ux, Initial residual = 7.74299e-11, Final residual = 7.74299e-11, No Iterations 0
smoothSolver:  Solving for Uy, Initial residual = 8.054e-11, Final residual = 8.054e-11, No Iterations 0
GAMG:  Solving for p, Initial residual = 8.68431e-11, Final residual = 8.68431e-11, No Iterations 0
time step continuity errors : sum local = 7.05317e-13, global = 9.03609e-17, cumulative = 1.95932e-06
ExecutionTime = 1371.31 s  ClockTime = 1497 s

fieldMinMax minMax write:
    min(mag(U)) = 0 in cell 36960 at location (0.000485708 0 0.05)
    max(mag(U)) = 73.2384 in cell 37929 at location (0.0755642 0.000765377 0.05)

Time = 59.79

smoothSolver:  Solving for Ux, Initial residual = 1.09533e-10, Final residual = 5.81705e-13, No Iterations 1
smoothSolver:  Solving for Uy, Initial residual = 1.15797e-10, Final residual = 3.30606e-13, No Iterations 1
GAMG:  Solving for p, Initial residual = 3.90863e-11, Final residual = 3.90863e-11, No Iterations 0
time step continuity errors : sum local = 3.18161e-13, global = 1.33695e-16, cumulative = 1.95932e-06
ExecutionTime = 1371.52 s  ClockTime = 1498 s

fieldMinMax minMax write:
    min(mag(U)) = 0 in cell 36960 at location (0.000485708 0 0.05)
    max(mag(U)) = 73.2384 in cell 37929 at location (0.0755642 0.000765377 0.05)

Time = 59.8

smoothSolver:  Solving for Ux, Initial residual = 5.75941e-11, Final residual = 5.75941e-11, No Iterations 0
smoothSolver:  Solving for Uy, Initial residual = 6.09215e-11, Final residual = 6.09215e-11, No Iterations 0
GAMG:  Solving for p, Initial residual = 6.41747e-11, Final residual = 6.41747e-11, No Iterations 0
time step continuity errors : sum local = 5.21426e-13, global = 1.43363e-16, cumulative = 1.95932e-06
ExecutionTime = 1371.72 s  ClockTime = 1498 s

fieldMinMax minMax write:
    min(mag(U)) = 0 in cell 36960 at location (0.000485708 0 0.05)
    max(mag(U)) = 73.2384 in cell 37929 at location (0.0755642 0.000765377 0.05)

Time = 59.81

smoothSolver:  Solving for Ux, Initial residual = 8.10513e-11, Final residual = 8.10513e-11, No Iterations 0
smoothSolver:  Solving for Uy, Initial residual = 8.63533e-11, Final residual = 8.63533e-11, No Iterations 0
GAMG:  Solving for p, Initial residual = 1.10593e-10, Final residual = 9.92742e-13, No Iterations 1
time step continuity errors : sum local = 1.77486e-14, global = 1.85517e-16, cumulative = 1.95932e-06
ExecutionTime = 1371.95 s  ClockTime = 1498 s

fieldMinMax minMax write:
    min(mag(U)) = 0 in cell 36960 at location (0.000485708 0 0.05)
    max(mag(U)) = 73.2384 in cell 37929 at location (0.0755642 0.000765377 0.05)

Time = 59.82

smoothSolver:  Solving for Ux, Initial residual = 1.15662e-10, Final residual = 6.07718e-13, No Iterations 1
smoothSolver:  Solving for Uy, Initial residual = 1.28245e-10, Final residual = 3.68399e-13, No Iterations 1
GAMG:  Solving for p, Initial residual = 3.97696e-11, Final residual = 3.97696e-11, No Iterations 0
time step continuity errors : sum local = 3.23777e-13, global = 1.45197e-16, cumulative = 1.95932e-06
ExecutionTime = 1372.19 s  ClockTime = 1498 s

fieldMinMax minMax write:
    min(mag(U)) = 0 in cell 36960 at location (0.000485708 0 0.05)
    max(mag(U)) = 73.2384 in cell 37929 at location (0.0755642 0.000765377 0.05)

Time = 59.83

smoothSolver:  Solving for Ux, Initial residual = 6.15021e-11, Final residual = 6.15021e-11, No Iterations 0
smoothSolver:  Solving for Uy, Initial residual = 6.78396e-11, Final residual = 6.78396e-11, No Iterations 0
GAMG:  Solving for p, Initial residual = 5.06076e-11, Final residual = 5.06076e-11, No Iterations 0
time step continuity errors : sum local = 4.11379e-13, global = 1.74049e-16, cumulative = 1.95932e-06
ExecutionTime = 1372.43 s  ClockTime = 1498 s

fieldMinMax minMax write:
    min(mag(U)) = 0 in cell 36960 at location (0.000485708 0 0.05)
    max(mag(U)) = 73.2384 in cell 37929 at location (0.0755642 0.000765377 0.05)

Time = 59.84

smoothSolver:  Solving for Ux, Initial residual = 8.72221e-11, Final residual = 8.72221e-11, No Iterations 0
smoothSolver:  Solving for Uy, Initial residual = 9.74721e-11, Final residual = 9.74721e-11, No Iterations 0
GAMG:  Solving for p, Initial residual = 7.12276e-11, Final residual = 7.12276e-11, No Iterations 0
time step continuity errors : sum local = 5.78385e-13, global = 1.17064e-16, cumulative = 1.95932e-06
ExecutionTime = 1372.63 s  ClockTime = 1499 s

fieldMinMax minMax write:
    min(mag(U)) = 0 in cell 36960 at location (0.000485708 0 0.05)
    max(mag(U)) = 73.2384 in cell 37929 at location (0.0755642 0.000765377 0.05)

Time = 59.85

smoothSolver:  Solving for Ux, Initial residual = 1.22839e-10, Final residual = 6.42642e-13, No Iterations 1
smoothSolver:  Solving for Uy, Initial residual = 1.39073e-10, Final residual = 3.9171e-13, No Iterations 1
GAMG:  Solving for p, Initial residual = 4.27762e-11, Final residual = 4.27762e-11, No Iterations 0
time step continuity errors : sum local = 3.47944e-13, global = 1.02103e-16, cumulative = 1.95932e-06
ExecutionTime = 1372.85 s  ClockTime = 1499 s

fieldMinMax minMax write:
    min(mag(U)) = 0 in cell 36960 at location (0.000485708 0 0.05)
    max(mag(U)) = 73.2384 in cell 37929 at location (0.0755642 0.000765377 0.05)

Time = 59.86

smoothSolver:  Solving for Ux, Initial residual = 6.4551e-11, Final residual = 6.4551e-11, No Iterations 0
smoothSolver:  Solving for Uy, Initial residual = 7.29405e-11, Final residual = 7.29405e-11, No Iterations 0
GAMG:  Solving for p, Initial residual = 5.80138e-11, Final residual = 5.80138e-11, No Iterations 0
time step continuity errors : sum local = 4.71346e-13, global = 1.27626e-16, cumulative = 1.95932e-06
ExecutionTime = 1373.05 s  ClockTime = 1499 s

fieldMinMax minMax write:
    min(mag(U)) = 0 in cell 36960 at location (0.000485708 0 0.05)
    max(mag(U)) = 73.2384 in cell 37929 at location (0.0755642 0.000765377 0.05)

Time = 59.87

smoothSolver:  Solving for Ux, Initial residual = 9.17826e-11, Final residual = 9.17826e-11, No Iterations 0
smoothSolver:  Solving for Uy, Initial residual = 1.0378e-10, Final residual = 2.94828e-13, No Iterations 1
GAMG:  Solving for p, Initial residual = 8.19771e-10, Final residual = 1.4923e-12, No Iterations 1
time step continuity errors : sum local = 2.15433e-14, global = -1.13678e-16, cumulative = 1.95932e-06
ExecutionTime = 1373.3 s  ClockTime = 1499 s

fieldMinMax minMax write:
    min(mag(U)) = 0 in cell 36960 at location (0.000485708 0 0.05)
    max(mag(U)) = 73.2384 in cell 37929 at location (0.0755642 0.000765377 0.05)

Time = 59.88

smoothSolver:  Solving for Ux, Initial residual = 1.31297e-10, Final residual = 6.63331e-13, No Iterations 1
smoothSolver:  Solving for Uy, Initial residual = 1.09778e-10, Final residual = 3.25699e-13, No Iterations 1
GAMG:  Solving for p, Initial residual = 1.50206e-10, Final residual = 6.29168e-13, No Iterations 1
time step continuity errors : sum local = 1.48667e-14, global = 1.91986e-16, cumulative = 1.95932e-06
ExecutionTime = 1373.55 s  ClockTime = 1500 s

fieldMinMax minMax write:
    min(mag(U)) = 0 in cell 36960 at location (0.000485708 0 0.05)
    max(mag(U)) = 73.2384 in cell 37929 at location (0.0755642 0.000765377 0.05)

Time = 59.89

smoothSolver:  Solving for Ux, Initial residual = 6.89103e-11, Final residual = 6.89103e-11, No Iterations 0
smoothSolver:  Solving for Uy, Initial residual = 6.60294e-11, Final residual = 6.60294e-11, No Iterations 0
GAMG:  Solving for p, Initial residual = 1.6237e-10, Final residual = 5.81734e-13, No Iterations 1
time step continuity errors : sum local = 1.47324e-14, global = 2.64249e-16, cumulative = 1.95932e-06
ExecutionTime = 1373.79 s  ClockTime = 1500 s

fieldMinMax minMax write:
    min(mag(U)) = 0 in cell 36960 at location (0.000485708 0 0.05)
    max(mag(U)) = 73.2384 in cell 37929 at location (0.0755642 0.000765377 0.05)

Time = 59.9

smoothSolver:  Solving for Ux, Initial residual = 9.6592e-11, Final residual = 9.6592e-11, No Iterations 0
smoothSolver:  Solving for Uy, Initial residual = 1.04073e-10, Final residual = 3.04213e-13, No Iterations 1
GAMG:  Solving for p, Initial residual = 9.09777e-10, Final residual = 9.05587e-13, No Iterations 1
time step continuity errors : sum local = 1.7263e-14, global = 5.20929e-16, cumulative = 1.95932e-06
ExecutionTime = 1374.05 s  ClockTime = 1500 s

fieldMinMax minMax write:
    min(mag(U)) = 0 in cell 36960 at location (0.000485708 0 0.05)
    max(mag(U)) = 73.2384 in cell 37929 at location (0.0755642 0.000765377 0.05)

Time = 59.91

smoothSolver:  Solving for Ux, Initial residual = 1.34712e-10, Final residual = 6.95905e-13, No Iterations 1
smoothSolver:  Solving for Uy, Initial residual = 1.10333e-10, Final residual = 3.39601e-13, No Iterations 1
GAMG:  Solving for p, Initial residual = 1.74973e-10, Final residual = 6.73359e-13, No Iterations 1
time step continuity errors : sum local = 1.54192e-14, global = 2.10831e-17, cumulative = 1.95932e-06
ExecutionTime = 1374.35 s  ClockTime = 1500 s

fieldMinMax minMax write:
    min(mag(U)) = 0 in cell 36960 at location (0.000485708 0 0.05)
    max(mag(U)) = 73.2384 in cell 37929 at location (0.0755642 0.000765377 0.05)

Time = 59.92

smoothSolver:  Solving for Ux, Initial residual = 7.08343e-11, Final residual = 7.08343e-11, No Iterations 0
smoothSolver:  Solving for Uy, Initial residual = 6.77471e-11, Final residual = 6.77471e-11, No Iterations 0
GAMG:  Solving for p, Initial residual = 1.4781e-10, Final residual = 5.91648e-13, No Iterations 1
time step continuity errors : sum local = 1.50417e-14, global = -7.08204e-17, cumulative = 1.95932e-06
ExecutionTime = 1374.61 s  ClockTime = 1501 s

fieldMinMax minMax write:
    min(mag(U)) = 0 in cell 36960 at location (0.000485708 0 0.05)
    max(mag(U)) = 73.2384 in cell 37929 at location (0.0755642 0.000765377 0.05)

Time = 59.93

smoothSolver:  Solving for Ux, Initial residual = 1.02297e-10, Final residual = 5.51199e-13, No Iterations 1
smoothSolver:  Solving for Uy, Initial residual = 1.03284e-10, Final residual = 3.09904e-13, No Iterations 1
GAMG:  Solving for p, Initial residual = 6.54827e-11, Final residual = 6.54827e-11, No Iterations 0
time step continuity errors : sum local = 5.3259e-13, global = -9.65177e-17, cumulative = 1.95932e-06
ExecutionTime = 1374.82 s  ClockTime = 1501 s

fieldMinMax minMax write:
    min(mag(U)) = 0 in cell 36960 at location (0.000485708 0 0.05)
    max(mag(U)) = 73.2384 in cell 37929 at location (0.0755642 0.000765377 0.05)

Time = 59.94

smoothSolver:  Solving for Ux, Initial residual = 5.40851e-11, Final residual = 5.40851e-11, No Iterations 0
smoothSolver:  Solving for Uy, Initial residual = 5.44323e-11, Final residual = 5.44323e-11, No Iterations 0
GAMG:  Solving for p, Initial residual = 8.68918e-11, Final residual = 8.68918e-11, No Iterations 0
time step continuity errors : sum local = 7.05863e-13, global = -9.15147e-17, cumulative = 1.95932e-06
ExecutionTime = 1375.02 s  ClockTime = 1501 s

fieldMinMax minMax write:
    min(mag(U)) = 0 in cell 36960 at location (0.000485708 0 0.05)
    max(mag(U)) = 73.2384 in cell 37929 at location (0.0755642 0.000765377 0.05)

Time = 59.95

smoothSolver:  Solving for Ux, Initial residual = 7.60879e-11, Final residual = 7.60879e-11, No Iterations 0
smoothSolver:  Solving for Uy, Initial residual = 7.77538e-11, Final residual = 7.77538e-11, No Iterations 0
GAMG:  Solving for p, Initial residual = 1.07753e-10, Final residual = 9.73123e-13, No Iterations 1
time step continuity errors : sum local = 1.78491e-14, global = -5.17251e-17, cumulative = 1.95932e-06
ExecutionTime = 1375.25 s  ClockTime = 1501 s

fieldMinMax minMax write:
    min(mag(U)) = 0 in cell 36960 at location (0.000485708 0 0.05)
    max(mag(U)) = 73.2384 in cell 37929 at location (0.0755642 0.000765377 0.05)

Time = 59.96

smoothSolver:  Solving for Ux, Initial residual = 1.06556e-10, Final residual = 5.80661e-13, No Iterations 1
smoothSolver:  Solving for Uy, Initial residual = 1.12794e-10, Final residual = 3.37172e-13, No Iterations 1
GAMG:  Solving for p, Initial residual = 3.09306e-11, Final residual = 3.09306e-11, No Iterations 0
time step continuity errors : sum local = 2.5226e-13, global = -1.03808e-16, cumulative = 1.95932e-06
ExecutionTime = 1375.47 s  ClockTime = 1502 s

fieldMinMax minMax write:
    min(mag(U)) = 0 in cell 36960 at location (0.000485708 0 0.05)
    max(mag(U)) = 73.2384 in cell 37929 at location (0.0755642 0.000765377 0.05)

Time = 59.97

smoothSolver:  Solving for Ux, Initial residual = 5.60917e-11, Final residual = 5.60917e-11, No Iterations 0
smoothSolver:  Solving for Uy, Initial residual = 5.91463e-11, Final residual = 5.91463e-11, No Iterations 0
GAMG:  Solving for p, Initial residual = 6.18686e-11, Final residual = 6.18686e-11, No Iterations 0
time step continuity errors : sum local = 5.02779e-13, global = -1.12803e-16, cumulative = 1.95932e-06
ExecutionTime = 1375.66 s  ClockTime = 1502 s

fieldMinMax minMax write:
    min(mag(U)) = 0 in cell 36960 at location (0.000485708 0 0.05)
    max(mag(U)) = 73.2384 in cell 37929 at location (0.0755642 0.000765377 0.05)

Time = 59.98

smoothSolver:  Solving for Ux, Initial residual = 8.10972e-11, Final residual = 8.10972e-11, No Iterations 0
smoothSolver:  Solving for Uy, Initial residual = 8.53383e-11, Final residual = 8.53383e-11, No Iterations 0
GAMG:  Solving for p, Initial residual = 1.03265e-10, Final residual = 1.14989e-12, No Iterations 1
time step continuity errors : sum local = 1.9314e-14, global = -1.21735e-16, cumulative = 1.95932e-06
ExecutionTime = 1375.9 s  ClockTime = 1502 s

fieldMinMax minMax write:
    min(mag(U)) = 0 in cell 36960 at location (0.000485708 0 0.05)
    max(mag(U)) = 73.2384 in cell 37929 at location (0.0755642 0.000765377 0.05)

Time = 59.99

smoothSolver:  Solving for Ux, Initial residual = 1.14676e-10, Final residual = 5.99308e-13, No Iterations 1
smoothSolver:  Solving for Uy, Initial residual = 1.2724e-10, Final residual = 3.69658e-13, No Iterations 1
GAMG:  Solving for p, Initial residual = 4.33805e-11, Final residual = 4.33805e-11, No Iterations 0
time step continuity errors : sum local = 3.53197e-13, global = -1.63602e-16, cumulative = 1.95932e-06
ExecutionTime = 1376.1 s  ClockTime = 1502 s

fieldMinMax minMax write:
    min(mag(U)) = 0 in cell 36960 at location (0.000485708 0 0.05)
    max(mag(U)) = 73.2384 in cell 37929 at location (0.0755642 0.000765377 0.05)

Time = 60

smoothSolver:  Solving for Ux, Initial residual = 6.01945e-11, Final residual = 6.01945e-11, No Iterations 0
smoothSolver:  Solving for Uy, Initial residual = 6.68452e-11, Final residual = 6.68452e-11, No Iterations 0
GAMG:  Solving for p, Initial residual = 4.89792e-11, Final residual = 4.89792e-11, No Iterations 0
time step continuity errors : sum local = 3.98263e-13, global = -1.40975e-16, cumulative = 1.95932e-06
ExecutionTime = 1376.93 s  ClockTime = 1503 s

fieldMinMax minMax write:
    min(mag(U)) = 0 in cell 36960 at location (0.000485708 0 0.05)
    max(mag(U)) = 73.2384 in cell 37929 at location (0.0755642 0.000765377 0.05)

yPlus yPlus write:
    writing field yPlus
    patch topWall y+ : min = 0.0224568, max = 0.222757, average = 0.19443
    patch bottomWall y+ : min = 7.88806, max = 27.4689, average = 13.2824
writeCellCentres writeCellCentres write:
    writing cell-volumes field C to 60
    Writing the x component field of the cell-centres Cx to 60
    Writing the y component field of the cell-centres Cy to 60
    Writing the z component field of the cell-centres Cz to 60
wallShearStress wallShearStress write:
    writing field wallShearStress
    min/max(topWall) = (-7.3365e-10 -9.19597e-07 0), (4.55427e-09 -9.76757e-09 0)
    min/max(bottomWall) = (-6.29317 -0.0286678 0), (-0.518899 0.00198764 0)
End

