/*---------------------------------------------------------------------------*\
| =========                 |                                                 |
| \\      /  F ield         | OpenFOAM: The Open Source CFD Toolbox           |
|  \\    /   O peration     | Version:  v2012                                 |
|   \\  /    A nd           | Website:  www.openfoam.com                      |
|    \\/     M anipulation  |                                                 |
\*---------------------------------------------------------------------------*/
Build  : _7bdb509494-20201222 OPENFOAM=2012
Arch   : "LSB;label=32;scalar=64"
Exec   : simpleFoam
Date   : Mar 23 2025
Time   : 00:48:14
Host   : Taupok
PID    : 3271
I/O    : uncollated
Case   : /mnt/c/Users/lowjo/OneDrive/Desktop/ASTAR/DASH/testLaminarFlatPlate
nProcs : 1
trapFpe: Floating point exception trapping enabled (FOAM_SIGFPE).
fileModificationChecking : Monitoring run-time modified files using timeStampMaster (fileModificationSkew 5, maxFileModificationPolls 20)
allowSystemOperations : Allowing user-supplied system call operations

// * * * * * * * * * * * * * * * * * * * * * * * * * * * * * * * * * * * * * //
Create time

Create mesh for time = 0


SIMPLE: no convergence criteria found. Calculations will run for 60 steps.

Reading field p

Reading field U

Reading/calculating face flux field phi

Selecting incompressible transport model Newtonian
Selecting turbulence model type laminar
Selecting laminar stress model Stokes
No MRF models present

No finite volume options present

Starting time loop

wallShearStress wallShearStress:
    processing all wall patches

Time = 0.01

smoothSolver:  Solving for Ux, Initial residual = 1, Final residual = 0.0543181, No Iterations 2
smoothSolver:  Solving for Uy, Initial residual = 1, Final residual = 0.0921514, No Iterations 1
GAMG:  Solving for p, Initial residual = 1, Final residual = 0.0789677, No Iterations 16
time step continuity errors : sum local = 3.67724e-07, global = -4.94303e-08, cumulative = -4.94303e-08
ExecutionTime = 2.08 s  ClockTime = 3 s

fieldMinMax minMax write:
    min(mag(U)) = 0 in cell 36960 at location (0.000485708 0 0.05)
    max(mag(U)) = 69.5092 in cell 51778 at location (0.00145827 0.000426604 0.05)

Time = 0.02

smoothSolver:  Solving for Ux, Initial residual = 0.0402379, Final residual = 0.0040003, No Iterations 3
smoothSolver:  Solving for Uy, Initial residual = 0.197618, Final residual = 0.00497298, No Iterations 1
GAMG:  Solving for p, Initial residual = 0.00243735, Final residual = 0.000183115, No Iterations 7
time step continuity errors : sum local = 1.22136e-06, global = 2.53088e-07, cumulative = 2.03658e-07
ExecutionTime = 2.49 s  ClockTime = 3 s

fieldMinMax minMax write:
    min(mag(U)) = 0 in cell 36960 at location (0.000485708 0 0.05)
    max(mag(U)) = 70.6648 in cell 191 at location (-0.000598615 1.36265e-05 0.05)

Time = 0.03

smoothSolver:  Solving for Ux, Initial residual = 0.0143959, Final residual = 0.000915842, No Iterations 5
smoothSolver:  Solving for Uy, Initial residual = 0.0986962, Final residual = 0.00339567, No Iterations 1
GAMG:  Solving for p, Initial residual = 0.00371201, Final residual = 0.000328197, No Iterations 5
time step continuity errors : sum local = 1.50635e-06, global = -2.76404e-07, cumulative = -7.27466e-08
ExecutionTime = 2.82 s  ClockTime = 4 s

fieldMinMax minMax write:
    min(mag(U)) = 0 in cell 36960 at location (0.000485708 0 0.05)
    max(mag(U)) = 71.9049 in cell 191 at location (-0.000598615 1.36265e-05 0.05)

Time = 0.04

smoothSolver:  Solving for Ux, Initial residual = 0.00810303, Final residual = 0.000651141, No Iterations 5
smoothSolver:  Solving for Uy, Initial residual = 0.0634072, Final residual = 0.00244854, No Iterations 1
GAMG:  Solving for p, Initial residual = 0.00402607, Final residual = 0.00030381, No Iterations 5
time step continuity errors : sum local = 1.15236e-06, global = -2.01488e-07, cumulative = -2.74234e-07
ExecutionTime = 3.16 s  ClockTime = 4 s

fieldMinMax minMax write:
    min(mag(U)) = 0 in cell 36960 at location (0.000485708 0 0.05)
    max(mag(U)) = 72.8422 in cell 191 at location (-0.000598615 1.36265e-05 0.05)

Time = 0.05

smoothSolver:  Solving for Ux, Initial residual = 0.00559456, Final residual = 0.000505288, No Iterations 5
smoothSolver:  Solving for Uy, Initial residual = 0.0459018, Final residual = 0.00178239, No Iterations 1
GAMG:  Solving for p, Initial residual = 0.00419127, Final residual = 0.000290413, No Iterations 4
time step continuity errors : sum local = 9.16941e-07, global = 6.12603e-08, cumulative = -2.12974e-07
ExecutionTime = 3.47 s  ClockTime = 4 s

fieldMinMax minMax write:
    min(mag(U)) = 0 in cell 36960 at location (0.000485708 0 0.05)
    max(mag(U)) = 73.5116 in cell 191 at location (-0.000598615 1.36265e-05 0.05)

Time = 0.06

smoothSolver:  Solving for Ux, Initial residual = 0.00427241, Final residual = 0.000412294, No Iterations 5
smoothSolver:  Solving for Uy, Initial residual = 0.0366026, Final residual = 0.00132389, No Iterations 1
GAMG:  Solving for p, Initial residual = 0.00404259, Final residual = 0.000398508, No Iterations 3
time step continuity errors : sum local = 1.15422e-06, global = 6.87747e-08, cumulative = -1.44199e-07
ExecutionTime = 3.74 s  ClockTime = 5 s

fieldMinMax minMax write:
    min(mag(U)) = 0 in cell 36960 at location (0.000485708 0 0.05)
    max(mag(U)) = 73.9786 in cell 191 at location (-0.000598615 1.36265e-05 0.05)

Time = 0.07

smoothSolver:  Solving for Ux, Initial residual = 0.00345504, Final residual = 0.000224979, No Iterations 6
smoothSolver:  Solving for Uy, Initial residual = 0.0308573, Final residual = 0.00100921, No Iterations 1
GAMG:  Solving for p, Initial residual = 0.00390983, Final residual = 0.000243745, No Iterations 4
time step continuity errors : sum local = 6.77645e-07, global = 6.0199e-08, cumulative = -8.40004e-08
ExecutionTime = 4.04 s  ClockTime = 5 s

fieldMinMax minMax write:
    min(mag(U)) = 0 in cell 36960 at location (0.000485708 0 0.05)
    max(mag(U)) = 74.4459 in cell 95 at location (-0.000598615 4.51172e-06 0.05)

Time = 0.08

smoothSolver:  Solving for Ux, Initial residual = 0.00287535, Final residual = 0.000193951, No Iterations 6
smoothSolver:  Solving for Uy, Initial residual = 0.0261873, Final residual = 0.000783175, No Iterations 1
GAMG:  Solving for p, Initial residual = 0.0038292, Final residual = 0.000272707, No Iterations 3
time step continuity errors : sum local = 6.98754e-07, global = 5.14749e-08, cumulative = -3.25255e-08
ExecutionTime = 4.32 s  ClockTime = 5 s

fieldMinMax minMax write:
    min(mag(U)) = 0 in cell 36960 at location (0.000485708 0 0.05)
    max(mag(U)) = 74.8221 in cell 95 at location (-0.000598615 4.51172e-06 0.05)

Time = 0.09

smoothSolver:  Solving for Ux, Initial residual = 0.0024634, Final residual = 0.00017024, No Iterations 6
smoothSolver:  Solving for Uy, Initial residual = 0.0233466, Final residual = 0.000630596, No Iterations 1
GAMG:  Solving for p, Initial residual = 0.00362761, Final residual = 0.000304535, No Iterations 3
time step continuity errors : sum local = 7.69177e-07, global = 6.13987e-08, cumulative = 2.88731e-08
ExecutionTime = 4.59 s  ClockTime = 5 s

fieldMinMax minMax write:
    min(mag(U)) = 0 in cell 36960 at location (0.000485708 0 0.05)
    max(mag(U)) = 75.0967 in cell 95 at location (-0.000598615 4.51172e-06 0.05)

Time = 0.1

smoothSolver:  Solving for Ux, Initial residual = 0.0021518, Final residual = 0.000151538, No Iterations 6
smoothSolver:  Solving for Uy, Initial residual = 0.0211264, Final residual = 0.000518114, No Iterations 1
GAMG:  Solving for p, Initial residual = 0.00355045, Final residual = 0.000282523, No Iterations 3
time step continuity errors : sum local = 6.90579e-07, global = 5.32937e-08, cumulative = 8.21668e-08
ExecutionTime = 4.86 s  ClockTime = 6 s

fieldMinMax minMax write:
    min(mag(U)) = 0 in cell 36960 at location (0.000485708 0 0.05)
    max(mag(U)) = 75.292 in cell 95 at location (-0.000598615 4.51172e-06 0.05)

Time = 0.11

smoothSolver:  Solving for Ux, Initial residual = 0.00190825, Final residual = 0.000136416, No Iterations 6
smoothSolver:  Solving for Uy, Initial residual = 0.0191113, Final residual = 0.000445177, No Iterations 1
GAMG:  Solving for p, Initial residual = 0.00344001, Final residual = 0.000251523, No Iterations 3
time step continuity errors : sum local = 5.93045e-07, global = 4.52029e-08, cumulative = 1.2737e-07
ExecutionTime = 5.16 s  ClockTime = 6 s

fieldMinMax minMax write:
    min(mag(U)) = 0 in cell 36960 at location (0.000485708 0 0.05)
    max(mag(U)) = 75.4268 in cell 95 at location (-0.000598615 4.51172e-06 0.05)

Time = 0.12

smoothSolver:  Solving for Ux, Initial residual = 0.0017127, Final residual = 0.000123935, No Iterations 6
smoothSolver:  Solving for Uy, Initial residual = 0.0174212, Final residual = 0.000394722, No Iterations 1
GAMG:  Solving for p, Initial residual = 0.00328266, Final residual = 0.000234684, No Iterations 3
time step continuity errors : sum local = 5.35803e-07, global = 3.72967e-08, cumulative = 1.64666e-07
ExecutionTime = 5.42 s  ClockTime = 6 s

fieldMinMax minMax write:
    min(mag(U)) = 0 in cell 36960 at location (0.000485708 0 0.05)
    max(mag(U)) = 75.5164 in cell 95 at location (-0.000598615 4.51172e-06 0.05)

Time = 0.13

smoothSolver:  Solving for Ux, Initial residual = 0.00155234, Final residual = 0.000113463, No Iterations 6
smoothSolver:  Solving for Uy, Initial residual = 0.0160121, Final residual = 0.000355081, No Iterations 1
GAMG:  Solving for p, Initial residual = 0.00312428, Final residual = 0.000222462, No Iterations 3
time step continuity errors : sum local = 4.93096e-07, global = 3.20735e-08, cumulative = 1.9674e-07
ExecutionTime = 5.68 s  ClockTime = 7 s

fieldMinMax minMax write:
    min(mag(U)) = 0 in cell 36960 at location (0.000485708 0 0.05)
    max(mag(U)) = 75.5728 in cell 95 at location (-0.000598615 4.51172e-06 0.05)

Time = 0.14

smoothSolver:  Solving for Ux, Initial residual = 0.0014186, Final residual = 0.000104553, No Iterations 6
smoothSolver:  Solving for Uy, Initial residual = 0.0148146, Final residual = 0.000322617, No Iterations 1
GAMG:  Solving for p, Initial residual = 0.00296745, Final residual = 0.000211255, No Iterations 3
time step continuity errors : sum local = 4.55971e-07, global = 2.71241e-08, cumulative = 2.23864e-07
ExecutionTime = 5.96 s  ClockTime = 7 s

fieldMinMax minMax write:
    min(mag(U)) = 0 in cell 36960 at location (0.000485708 0 0.05)
    max(mag(U)) = 75.6054 in cell 95 at location (-0.000598615 4.51172e-06 0.05)

Time = 0.15

smoothSolver:  Solving for Ux, Initial residual = 0.00130548, Final residual = 9.68813e-05, No Iterations 6
smoothSolver:  Solving for Uy, Initial residual = 0.0137774, Final residual = 0.000294147, No Iterations 1
GAMG:  Solving for p, Initial residual = 0.00281398, Final residual = 0.000200776, No Iterations 3
time step continuity errors : sum local = 4.23313e-07, global = 2.2586e-08, cumulative = 2.4645e-07
ExecutionTime = 6.2 s  ClockTime = 7 s

fieldMinMax minMax write:
    min(mag(U)) = 0 in cell 36960 at location (0.000485708 0 0.05)
    max(mag(U)) = 75.6212 in cell 95 at location (-0.000598615 4.51172e-06 0.05)

Time = 0.16

smoothSolver:  Solving for Ux, Initial residual = 0.00120858, Final residual = 9.02083e-05, No Iterations 6
smoothSolver:  Solving for Uy, Initial residual = 0.0128673, Final residual = 0.000268731, No Iterations 1
GAMG:  Solving for p, Initial residual = 0.00266825, Final residual = 0.000191597, No Iterations 3
time step continuity errors : sum local = 3.95753e-07, global = 1.91662e-08, cumulative = 2.65616e-07
ExecutionTime = 6.46 s  ClockTime = 7 s

fieldMinMax minMax write:
    min(mag(U)) = 0 in cell 36960 at location (0.000485708 0 0.05)
    max(mag(U)) = 75.6256 in cell 95 at location (-0.000598615 4.51172e-06 0.05)

Time = 0.17

smoothSolver:  Solving for Ux, Initial residual = 0.00112463, Final residual = 8.43522e-05, No Iterations 6
smoothSolver:  Solving for Uy, Initial residual = 0.0120658, Final residual = 0.000246032, No Iterations 1
GAMG:  Solving for p, Initial residual = 0.00252984, Final residual = 0.000183885, No Iterations 3
time step continuity errors : sum local = 3.72992e-07, global = 1.73638e-08, cumulative = 2.8298e-07
ExecutionTime = 6.72 s  ClockTime = 8 s

fieldMinMax minMax write:
    min(mag(U)) = 0 in cell 36960 at location (0.000485708 0 0.05)
    max(mag(U)) = 75.6225 in cell 95 at location (-0.000598615 4.51172e-06 0.05)

Time = 0.18

smoothSolver:  Solving for Ux, Initial residual = 0.00105119, Final residual = 7.91725e-05, No Iterations 6
smoothSolver:  Solving for Uy, Initial residual = 0.0113579, Final residual = 0.00022596, No Iterations 1
GAMG:  Solving for p, Initial residual = 0.00239996, Final residual = 0.000178067, No Iterations 3
time step continuity errors : sum local = 3.55316e-07, global = 1.7079e-08, cumulative = 3.00059e-07
ExecutionTime = 7 s  ClockTime = 8 s

fieldMinMax minMax write:
    min(mag(U)) = 0 in cell 36960 at location (0.000485708 0 0.05)
    max(mag(U)) = 75.6146 in cell 95 at location (-0.000598615 4.51172e-06 0.05)

Time = 0.19

smoothSolver:  Solving for Ux, Initial residual = 0.000986404, Final residual = 7.45596e-05, No Iterations 6
smoothSolver:  Solving for Uy, Initial residual = 0.0107289, Final residual = 0.000208376, No Iterations 1
GAMG:  Solving for p, Initial residual = 0.00228074, Final residual = 0.000173272, No Iterations 3
time step continuity errors : sum local = 3.40548e-07, global = 1.76967e-08, cumulative = 3.17756e-07
ExecutionTime = 7.25 s  ClockTime = 8 s

fieldMinMax minMax write:
    min(mag(U)) = 0 in cell 36960 at location (0.000485708 0 0.05)
    max(mag(U)) = 75.604 in cell 95 at location (-0.000598615 4.51172e-06 0.05)

Time = 0.2

smoothSolver:  Solving for Ux, Initial residual = 0.000928831, Final residual = 7.04261e-05, No Iterations 6
smoothSolver:  Solving for Uy, Initial residual = 0.01017, Final residual = 0.000193028, No Iterations 1
GAMG:  Solving for p, Initial residual = 0.00217084, Final residual = 0.00016881, No Iterations 3
time step continuity errors : sum local = 3.27089e-07, global = 1.85744e-08, cumulative = 3.3633e-07
ExecutionTime = 7.5 s  ClockTime = 8 s

fieldMinMax minMax write:
    min(mag(U)) = 0 in cell 36960 at location (0.000485708 0 0.05)
    max(mag(U)) = 75.5921 in cell 95 at location (-0.000598615 4.51172e-06 0.05)

Time = 0.21

smoothSolver:  Solving for Ux, Initial residual = 0.000877337, Final residual = 6.67012e-05, No Iterations 6
smoothSolver:  Solving for Uy, Initial residual = 0.0096734, Final residual = 0.000179745, No Iterations 1
GAMG:  Solving for p, Initial residual = 0.00206604, Final residual = 0.000163834, No Iterations 3
time step continuity errors : sum local = 3.13202e-07, global = 1.97196e-08, cumulative = 3.5605e-07
ExecutionTime = 7.76 s  ClockTime = 9 s

fieldMinMax minMax write:
    min(mag(U)) = 0 in cell 36960 at location (0.000485708 0 0.05)
    max(mag(U)) = 75.5796 in cell 95 at location (-0.000598615 4.51172e-06 0.05)

Time = 0.22

smoothSolver:  Solving for Ux, Initial residual = 0.000831017, Final residual = 6.33276e-05, No Iterations 6
smoothSolver:  Solving for Uy, Initial residual = 0.00922682, Final residual = 0.000169208, No Iterations 1
GAMG:  Solving for p, Initial residual = 0.00196524, Final residual = 0.00015752, No Iterations 3
time step continuity errors : sum local = 2.97333e-07, global = 2.07723e-08, cumulative = 3.76822e-07
ExecutionTime = 8.02 s  ClockTime = 9 s

fieldMinMax minMax write:
    min(mag(U)) = 0 in cell 36960 at location (0.000485708 0 0.05)
    max(mag(U)) = 75.5673 in cell 95 at location (-0.000598615 4.51172e-06 0.05)

Time = 0.23

smoothSolver:  Solving for Ux, Initial residual = 0.000789144, Final residual = 6.02584e-05, No Iterations 6
smoothSolver:  Solving for Uy, Initial residual = 0.00881936, Final residual = 0.000160574, No Iterations 1
GAMG:  Solving for p, Initial residual = 0.00186677, Final residual = 0.000149745, No Iterations 3
time step continuity errors : sum local = 2.79293e-07, global = 1.94944e-08, cumulative = 3.96316e-07
ExecutionTime = 8.28 s  ClockTime = 9 s

fieldMinMax minMax write:
    min(mag(U)) = 0 in cell 36960 at location (0.000485708 0 0.05)
    max(mag(U)) = 75.5554 in cell 95 at location (-0.000598615 4.51172e-06 0.05)

Time = 0.24

smoothSolver:  Solving for Ux, Initial residual = 0.000751104, Final residual = 5.74544e-05, No Iterations 6
smoothSolver:  Solving for Uy, Initial residual = 0.00844355, Final residual = 0.000153122, No Iterations 1
GAMG:  Solving for p, Initial residual = 0.00177005, Final residual = 0.000142588, No Iterations 3
time step continuity errors : sum local = 2.62967e-07, global = 2.21471e-08, cumulative = 4.18464e-07
ExecutionTime = 8.55 s  ClockTime = 10 s

fieldMinMax minMax write:
    min(mag(U)) = 0 in cell 36960 at location (0.000485708 0 0.05)
    max(mag(U)) = 75.5442 in cell 95 at location (-0.000598615 4.51172e-06 0.05)

Time = 0.25

smoothSolver:  Solving for Ux, Initial residual = 0.000716388, Final residual = 5.4883e-05, No Iterations 6
smoothSolver:  Solving for Uy, Initial residual = 0.0080942, Final residual = 0.000146378, No Iterations 1
GAMG:  Solving for p, Initial residual = 0.00167933, Final residual = 0.000138971, No Iterations 3
time step continuity errors : sum local = 2.53613e-07, global = 2.87589e-08, cumulative = 4.47222e-07
ExecutionTime = 8.83 s  ClockTime = 10 s

fieldMinMax minMax write:
    min(mag(U)) = 0 in cell 36960 at location (0.000485708 0 0.05)
    max(mag(U)) = 75.5338 in cell 95 at location (-0.000598615 4.51172e-06 0.05)

Time = 0.26

smoothSolver:  Solving for Ux, Initial residual = 0.000684581, Final residual = 5.25169e-05, No Iterations 6
smoothSolver:  Solving for Uy, Initial residual = 0.00777028, Final residual = 0.000140117, No Iterations 1
GAMG:  Solving for p, Initial residual = 0.00159713, Final residual = 0.000139222, No Iterations 3
time step continuity errors : sum local = 2.51556e-07, global = 3.36723e-08, cumulative = 4.80895e-07
ExecutionTime = 9.11 s  ClockTime = 10 s

fieldMinMax minMax write:
    min(mag(U)) = 0 in cell 36960 at location (0.000485708 0 0.05)
    max(mag(U)) = 75.5241 in cell 95 at location (-0.000598615 4.51172e-06 0.05)

Time = 0.27

smoothSolver:  Solving for Ux, Initial residual = 0.00065532, Final residual = 5.03324e-05, No Iterations 6
smoothSolver:  Solving for Uy, Initial residual = 0.00746648, Final residual = 0.000134233, No Iterations 1
GAMG:  Solving for p, Initial residual = 0.001524, Final residual = 0.000140373, No Iterations 3
time step continuity errors : sum local = 2.5116e-07, global = 3.63858e-08, cumulative = 5.17281e-07
ExecutionTime = 9.37 s  ClockTime = 10 s

fieldMinMax minMax write:
    min(mag(U)) = 0 in cell 36960 at location (0.000485708 0 0.05)
    max(mag(U)) = 75.5151 in cell 95 at location (-0.000598615 4.51172e-06 0.05)

Time = 0.28

smoothSolver:  Solving for Ux, Initial residual = 0.000628332, Final residual = 4.83098e-05, No Iterations 6
smoothSolver:  Solving for Uy, Initial residual = 0.00717477, Final residual = 0.000128675, No Iterations 1
GAMG:  Solving for p, Initial residual = 0.00145433, Final residual = 0.000140487, No Iterations 3
time step continuity errors : sum local = 2.48961e-07, global = 3.70491e-08, cumulative = 5.5433e-07
ExecutionTime = 9.62 s  ClockTime = 11 s

fieldMinMax minMax write:
    min(mag(U)) = 0 in cell 36960 at location (0.000485708 0 0.05)
    max(mag(U)) = 75.5068 in cell 95 at location (-0.000598615 4.51172e-06 0.05)

Time = 0.29

smoothSolver:  Solving for Ux, Initial residual = 0.000603368, Final residual = 4.64319e-05, No Iterations 6
smoothSolver:  Solving for Uy, Initial residual = 0.00689157, Final residual = 0.000123421, No Iterations 1
GAMG:  Solving for p, Initial residual = 0.00138699, Final residual = 9.52056e-05, No Iterations 4
time step continuity errors : sum local = 1.67131e-07, global = -2.84119e-08, cumulative = 5.25918e-07
ExecutionTime = 9.9 s  ClockTime = 11 s

fieldMinMax minMax write:
    min(mag(U)) = 0 in cell 36960 at location (0.000485708 0 0.05)
    max(mag(U)) = 75.4992 in cell 95 at location (-0.000598615 4.51172e-06 0.05)

Time = 0.3

smoothSolver:  Solving for Ux, Initial residual = 0.000580257, Final residual = 4.46839e-05, No Iterations 6
smoothSolver:  Solving for Uy, Initial residual = 0.00659195, Final residual = 0.000118263, No Iterations 1
GAMG:  Solving for p, Initial residual = 0.00129965, Final residual = 0.000121538, No Iterations 3
time step continuity errors : sum local = 2.1057e-07, global = -2.54523e-08, cumulative = 5.00465e-07
ExecutionTime = 10.16 s  ClockTime = 11 s

fieldMinMax minMax write:
    min(mag(U)) = 0 in cell 36960 at location (0.000485708 0 0.05)
    max(mag(U)) = 75.4921 in cell 95 at location (-0.000598615 4.51172e-06 0.05)

Time = 0.31

smoothSolver:  Solving for Ux, Initial residual = 0.000558581, Final residual = 4.30527e-05, No Iterations 6
smoothSolver:  Solving for Uy, Initial residual = 0.00635735, Final residual = 0.000113903, No Iterations 1
GAMG:  Solving for p, Initial residual = 0.00126246, Final residual = 0.000124347, No Iterations 3
time step continuity errors : sum local = 2.13917e-07, global = -7.88489e-09, cumulative = 4.92581e-07
ExecutionTime = 10.42 s  ClockTime = 11 s

fieldMinMax minMax write:
    min(mag(U)) = 0 in cell 36960 at location (0.000485708 0 0.05)
    max(mag(U)) = 75.4855 in cell 95 at location (-0.000598615 4.51172e-06 0.05)

Time = 0.32

smoothSolver:  Solving for Ux, Initial residual = 0.000538599, Final residual = 4.15273e-05, No Iterations 6
smoothSolver:  Solving for Uy, Initial residual = 0.00609276, Final residual = 0.000109535, No Iterations 1
GAMG:  Solving for p, Initial residual = 0.00120439, Final residual = 7.33725e-05, No Iterations 4
time step continuity errors : sum local = 1.25234e-07, global = 1.06815e-08, cumulative = 5.03262e-07
ExecutionTime = 10.7 s  ClockTime = 12 s

fieldMinMax minMax write:
    min(mag(U)) = 0 in cell 36960 at location (0.000485708 0 0.05)
    max(mag(U)) = 75.4793 in cell 95 at location (-0.000598615 4.51172e-06 0.05)

Time = 0.33

smoothSolver:  Solving for Ux, Initial residual = 0.000519985, Final residual = 4.00979e-05, No Iterations 6
smoothSolver:  Solving for Uy, Initial residual = 0.00580122, Final residual = 0.000105231, No Iterations 1
GAMG:  Solving for p, Initial residual = 0.00109056, Final residual = 9.60784e-05, No Iterations 3
time step continuity errors : sum local = 1.62434e-07, global = 6.72029e-09, cumulative = 5.09982e-07
ExecutionTime = 10.98 s  ClockTime = 12 s

fieldMinMax minMax write:
    min(mag(U)) = 0 in cell 36960 at location (0.000485708 0 0.05)
    max(mag(U)) = 75.4735 in cell 95 at location (-0.000598615 4.51172e-06 0.05)

Time = 0.34

smoothSolver:  Solving for Ux, Initial residual = 0.000502297, Final residual = 3.87556e-05, No Iterations 6
smoothSolver:  Solving for Uy, Initial residual = 0.00558626, Final residual = 0.000101703, No Iterations 1
GAMG:  Solving for p, Initial residual = 0.0010796, Final residual = 7.33311e-05, No Iterations 4
time step continuity errors : sum local = 1.23148e-07, global = -7.46237e-09, cumulative = 5.0252e-07
ExecutionTime = 11.26 s  ClockTime = 12 s

fieldMinMax minMax write:
    min(mag(U)) = 0 in cell 36960 at location (0.000485708 0 0.05)
    max(mag(U)) = 75.4681 in cell 95 at location (-0.000598615 4.51172e-06 0.05)

Time = 0.35

smoothSolver:  Solving for Ux, Initial residual = 0.000485929, Final residual = 3.7493e-05, No Iterations 6
smoothSolver:  Solving for Uy, Initial residual = 0.00531049, Final residual = 9.80239e-05, No Iterations 1
GAMG:  Solving for p, Initial residual = 0.000991707, Final residual = 9.19526e-05, No Iterations 3
time step continuity errors : sum local = 1.52889e-07, global = 9.64042e-10, cumulative = 5.03484e-07
ExecutionTime = 11.54 s  ClockTime = 13 s

fieldMinMax minMax write:
    min(mag(U)) = 0 in cell 36960 at location (0.000485708 0 0.05)
    max(mag(U)) = 75.463 in cell 95 at location (-0.000598615 4.51172e-06 0.05)

Time = 0.36

smoothSolver:  Solving for Ux, Initial residual = 0.000470341, Final residual = 3.6303e-05, No Iterations 6
smoothSolver:  Solving for Uy, Initial residual = 0.00509976, Final residual = 9.50904e-05, No Iterations 1
GAMG:  Solving for p, Initial residual = 0.000986159, Final residual = 7.00261e-05, No Iterations 4
time step continuity errors : sum local = 1.15784e-07, global = -8.22921e-09, cumulative = 4.95255e-07
ExecutionTime = 11.84 s  ClockTime = 13 s

fieldMinMax minMax write:
    min(mag(U)) = 0 in cell 36960 at location (0.000485708 0 0.05)
    max(mag(U)) = 75.4582 in cell 95 at location (-0.000598615 4.51172e-06 0.05)

Time = 0.37

smoothSolver:  Solving for Ux, Initial residual = 0.000455847, Final residual = 3.518e-05, No Iterations 6
smoothSolver:  Solving for Uy, Initial residual = 0.00483533, Final residual = 9.20288e-05, No Iterations 1
GAMG:  Solving for p, Initial residual = 0.000898453, Final residual = 8.44305e-05, No Iterations 3
time step continuity errors : sum local = 1.38387e-07, global = 5.49511e-09, cumulative = 5.0075e-07
ExecutionTime = 12.11 s  ClockTime = 13 s

fieldMinMax minMax write:
    min(mag(U)) = 0 in cell 36960 at location (0.000485708 0 0.05)
    max(mag(U)) = 75.4537 in cell 95 at location (-0.000598615 4.51172e-06 0.05)

Time = 0.38

smoothSolver:  Solving for Ux, Initial residual = 0.000441961, Final residual = 3.41181e-05, No Iterations 6
smoothSolver:  Solving for Uy, Initial residual = 0.00463768, Final residual = 8.95166e-05, No Iterations 1
GAMG:  Solving for p, Initial residual = 0.000895964, Final residual = 6.21564e-05, No Iterations 4
time step continuity errors : sum local = 1.01461e-07, global = 1.10355e-08, cumulative = 5.11785e-07
ExecutionTime = 12.41 s  ClockTime = 14 s

fieldMinMax minMax write:
    min(mag(U)) = 0 in cell 36960 at location (0.000485708 0 0.05)
    max(mag(U)) = 75.4493 in cell 95 at location (-0.000598615 4.51172e-06 0.05)

Time = 0.39

smoothSolver:  Solving for Ux, Initial residual = 0.000429046, Final residual = 3.31129e-05, No Iterations 6
smoothSolver:  Solving for Uy, Initial residual = 0.00438812, Final residual = 8.68317e-05, No Iterations 1
GAMG:  Solving for p, Initial residual = 0.000813149, Final residual = 5.64672e-05, No Iterations 4
time step continuity errors : sum local = 9.16095e-08, global = 1.34733e-08, cumulative = 5.25259e-07
ExecutionTime = 12.68 s  ClockTime = 14 s

fieldMinMax minMax write:
    min(mag(U)) = 0 in cell 36960 at location (0.000485708 0 0.05)
    max(mag(U)) = 75.4452 in cell 95 at location (-0.000598615 4.51172e-06 0.05)

Time = 0.4

smoothSolver:  Solving for Ux, Initial residual = 0.000416611, Final residual = 3.21598e-05, No Iterations 6
smoothSolver:  Solving for Uy, Initial residual = 0.00418713, Final residual = 8.44708e-05, No Iterations 1
GAMG:  Solving for p, Initial residual = 0.000782508, Final residual = 5.84733e-05, No Iterations 4
time step continuity errors : sum local = 9.4429e-08, global = 1.9006e-08, cumulative = 5.44265e-07
ExecutionTime = 12.97 s  ClockTime = 14 s

fieldMinMax minMax write:
    min(mag(U)) = 0 in cell 36960 at location (0.000485708 0 0.05)
    max(mag(U)) = 75.4413 in cell 95 at location (-0.000598615 4.51172e-06 0.05)

Time = 0.41

smoothSolver:  Solving for Ux, Initial residual = 0.000404886, Final residual = 3.1255e-05, No Iterations 6
smoothSolver:  Solving for Uy, Initial residual = 0.00398538, Final residual = 8.21675e-05, No Iterations 1
GAMG:  Solving for p, Initial residual = 0.000754312, Final residual = 5.82023e-05, No Iterations 4
time step continuity errors : sum local = 9.36902e-08, global = 2.46955e-08, cumulative = 5.6896e-07
ExecutionTime = 13.25 s  ClockTime = 14 s

fieldMinMax minMax write:
    min(mag(U)) = 0 in cell 36960 at location (0.000485708 0 0.05)
    max(mag(U)) = 75.4375 in cell 95 at location (-0.000598615 4.51172e-06 0.05)

Time = 0.42

smoothSolver:  Solving for Ux, Initial residual = 0.00039376, Final residual = 3.03948e-05, No Iterations 6
smoothSolver:  Solving for Uy, Initial residual = 0.00379143, Final residual = 7.99537e-05, No Iterations 1
GAMG:  Solving for p, Initial residual = 0.000725695, Final residual = 5.83465e-05, No Iterations 4
time step continuity errors : sum local = 9.37454e-08, global = 2.40279e-08, cumulative = 5.92988e-07
ExecutionTime = 13.52 s  ClockTime = 15 s

fieldMinMax minMax write:
    min(mag(U)) = 0 in cell 36960 at location (0.000485708 0 0.05)
    max(mag(U)) = 75.4339 in cell 95 at location (-0.000598615 4.51172e-06 0.05)

Time = 0.43

smoothSolver:  Solving for Ux, Initial residual = 0.000383169, Final residual = 2.95763e-05, No Iterations 6
smoothSolver:  Solving for Uy, Initial residual = 0.00360275, Final residual = 7.78099e-05, No Iterations 1
GAMG:  Solving for p, Initial residual = 0.000695191, Final residual = 5.8661e-05, No Iterations 4
time step continuity errors : sum local = 9.40787e-08, global = 2.25041e-08, cumulative = 6.15492e-07
ExecutionTime = 13.8 s  ClockTime = 15 s

fieldMinMax minMax write:
    min(mag(U)) = 0 in cell 36960 at location (0.000485708 0 0.05)
    max(mag(U)) = 75.4305 in cell 95 at location (-0.000598615 4.51172e-06 0.05)

Time = 0.44

smoothSolver:  Solving for Ux, Initial residual = 0.000373074, Final residual = 2.87963e-05, No Iterations 6
smoothSolver:  Solving for Uy, Initial residual = 0.00342165, Final residual = 7.57409e-05, No Iterations 1
GAMG:  Solving for p, Initial residual = 0.000661937, Final residual = 5.69041e-05, No Iterations 4
time step continuity errors : sum local = 9.11457e-08, global = 2.08791e-08, cumulative = 6.36371e-07
ExecutionTime = 14.08 s  ClockTime = 15 s

fieldMinMax minMax write:
    min(mag(U)) = 0 in cell 36960 at location (0.000485708 0 0.05)
    max(mag(U)) = 75.4272 in cell 95 at location (-0.000598615 4.51172e-06 0.05)

Time = 0.45

smoothSolver:  Solving for Ux, Initial residual = 0.000363438, Final residual = 2.80523e-05, No Iterations 6
smoothSolver:  Solving for Uy, Initial residual = 0.00325418, Final residual = 7.37639e-05, No Iterations 1
GAMG:  Solving for p, Initial residual = 0.000628077, Final residual = 5.39417e-05, No Iterations 4
time step continuity errors : sum local = 8.63804e-08, global = 1.97837e-08, cumulative = 6.56155e-07
ExecutionTime = 14.37 s  ClockTime = 16 s

fieldMinMax minMax write:
    min(mag(U)) = 0 in cell 36960 at location (0.000485708 0 0.05)
    max(mag(U)) = 75.424 in cell 95 at location (-0.000598615 4.51172e-06 0.05)

Time = 0.46

smoothSolver:  Solving for Ux, Initial residual = 0.000354233, Final residual = 2.73419e-05, No Iterations 6
smoothSolver:  Solving for Uy, Initial residual = 0.00310196, Final residual = 7.18787e-05, No Iterations 1
GAMG:  Solving for p, Initial residual = 0.000594882, Final residual = 5.08233e-05, No Iterations 4
time step continuity errors : sum local = 8.14598e-08, global = 1.91026e-08, cumulative = 6.75258e-07
ExecutionTime = 14.65 s  ClockTime = 16 s

fieldMinMax minMax write:
    min(mag(U)) = 0 in cell 36960 at location (0.000485708 0 0.05)
    max(mag(U)) = 75.421 in cell 95 at location (-0.000598615 4.51172e-06 0.05)

Time = 0.47

smoothSolver:  Solving for Ux, Initial residual = 0.000345431, Final residual = 2.66629e-05, No Iterations 6
smoothSolver:  Solving for Uy, Initial residual = 0.00296574, Final residual = 7.0087e-05, No Iterations 1
GAMG:  Solving for p, Initial residual = 0.000563573, Final residual = 4.81048e-05, No Iterations 4
time step continuity errors : sum local = 7.72556e-08, global = 1.86665e-08, cumulative = 6.93924e-07
ExecutionTime = 14.93 s  ClockTime = 16 s

fieldMinMax minMax write:
    min(mag(U)) = 0 in cell 36960 at location (0.000485708 0 0.05)
    max(mag(U)) = 75.418 in cell 95 at location (-0.000598615 4.51172e-06 0.05)

Time = 0.48

smoothSolver:  Solving for Ux, Initial residual = 0.000337003, Final residual = 2.60133e-05, No Iterations 6
smoothSolver:  Solving for Uy, Initial residual = 0.00284599, Final residual = 6.83869e-05, No Iterations 1
GAMG:  Solving for p, Initial residual = 0.000533928, Final residual = 4.90002e-05, No Iterations 4
time step continuity errors : sum local = 7.89233e-08, global = 2.18825e-08, cumulative = 7.15807e-07
ExecutionTime = 15.2 s  ClockTime = 16 s

fieldMinMax minMax write:
    min(mag(U)) = 0 in cell 36960 at location (0.000485708 0 0.05)
    max(mag(U)) = 75.4152 in cell 95 at location (-0.000598615 4.51172e-06 0.05)

Time = 0.49

smoothSolver:  Solving for Ux, Initial residual = 0.000328911, Final residual = 2.53912e-05, No Iterations 6
smoothSolver:  Solving for Uy, Initial residual = 0.00274362, Final residual = 6.67812e-05, No Iterations 1
GAMG:  Solving for p, Initial residual = 0.000508643, Final residual = 4.85883e-05, No Iterations 4
time step continuity errors : sum local = 7.85509e-08, global = 2.43832e-08, cumulative = 7.4019e-07
ExecutionTime = 15.48 s  ClockTime = 17 s

fieldMinMax minMax write:
    min(mag(U)) = 0 in cell 36960 at location (0.000485708 0 0.05)
    max(mag(U)) = 75.4125 in cell 95 at location (-0.000598615 4.51172e-06 0.05)

Time = 0.5

smoothSolver:  Solving for Ux, Initial residual = 0.000321174, Final residual = 2.47949e-05, No Iterations 6
smoothSolver:  Solving for Uy, Initial residual = 0.00265775, Final residual = 6.5255e-05, No Iterations 1
GAMG:  Solving for p, Initial residual = 0.000482115, Final residual = 4.70048e-05, No Iterations 4
time step continuity errors : sum local = 7.63435e-08, global = 2.59176e-08, cumulative = 7.66107e-07
ExecutionTime = 16.2 s  ClockTime = 18 s

fieldMinMax minMax write:
    min(mag(U)) = 0 in cell 36960 at location (0.000485708 0 0.05)
    max(mag(U)) = 75.4099 in cell 95 at location (-0.000598615 4.51172e-06 0.05)

yPlus yPlus write:
    writing field yPlus
    patch topWall y+ : min = 0.0238852, max = 0.303655, average = 0.237098
    patch bottomWall y+ : min = 0.593634, max = 2.26073, average = 0.627992
writeCellCentres writeCellCentres write:
    writing cell-volumes field C to 0.5
    Writing the x component field of the cell-centres Cx to 0.5
    Writing the y component field of the cell-centres Cy to 0.5
    Writing the z component field of the cell-centres Cz to 0.5
wallShearStress wallShearStress write:
    writing field wallShearStress
    min/max(topWall) = (-2.17001e-09 -3.60645e-07 0), (4.95832e-09 -1.97733e-09 0)
    min/max(bottomWall) = (-48.3686 -0.932488 0), (-3.33528 7.28047e-07 0)
Time = 0.51

smoothSolver:  Solving for Ux, Initial residual = 0.000313749, Final residual = 2.42229e-05, No Iterations 6
smoothSolver:  Solving for Uy, Initial residual = 0.00258745, Final residual = 6.38207e-05, No Iterations 1
GAMG:  Solving for p, Initial residual = 0.000456103, Final residual = 4.50528e-05, No Iterations 4
time step continuity errors : sum local = 7.35561e-08, global = 2.66804e-08, cumulative = 7.92788e-07
ExecutionTime = 16.91 s  ClockTime = 19 s

fieldMinMax minMax write:
    min(mag(U)) = 0 in cell 36960 at location (0.000485708 0 0.05)
    max(mag(U)) = 75.4074 in cell 95 at location (-0.000598615 4.51172e-06 0.05)

Time = 0.52

smoothSolver:  Solving for Ux, Initial residual = 0.000306618, Final residual = 2.36738e-05, No Iterations 6
smoothSolver:  Solving for Uy, Initial residual = 0.00252605, Final residual = 6.24653e-05, No Iterations 1
GAMG:  Solving for p, Initial residual = 0.000431564, Final residual = 3.17672e-05, No Iterations 5
time step continuity errors : sum local = 5.21606e-08, global = -1.74622e-08, cumulative = 7.75326e-07
ExecutionTime = 17.21 s  ClockTime = 19 s

fieldMinMax minMax write:
    min(mag(U)) = 0 in cell 36960 at location (0.000485708 0 0.05)
    max(mag(U)) = 75.4049 in cell 95 at location (-0.000598615 4.51172e-06 0.05)

Time = 0.53

smoothSolver:  Solving for Ux, Initial residual = 0.000299802, Final residual = 2.31461e-05, No Iterations 6
smoothSolver:  Solving for Uy, Initial residual = 0.00246961, Final residual = 6.11655e-05, No Iterations 1
GAMG:  Solving for p, Initial residual = 0.000401292, Final residual = 3.09805e-05, No Iterations 4
time step continuity errors : sum local = 5.11522e-08, global = -1.4529e-08, cumulative = 7.60797e-07
ExecutionTime = 17.49 s  ClockTime = 19 s

fieldMinMax minMax write:
    min(mag(U)) = 0 in cell 36960 at location (0.000485708 0 0.05)
    max(mag(U)) = 75.4026 in cell 95 at location (-0.000598615 4.51172e-06 0.05)

Time = 0.54

smoothSolver:  Solving for Ux, Initial residual = 0.000293202, Final residual = 2.26387e-05, No Iterations 6
smoothSolver:  Solving for Uy, Initial residual = 0.00241435, Final residual = 5.99299e-05, No Iterations 1
GAMG:  Solving for p, Initial residual = 0.000380961, Final residual = 2.9793e-05, No Iterations 4
time step continuity errors : sum local = 4.94929e-08, global = -1.44351e-08, cumulative = 7.46362e-07
ExecutionTime = 17.76 s  ClockTime = 20 s

fieldMinMax minMax write:
    min(mag(U)) = 0 in cell 36960 at location (0.000485708 0 0.05)
    max(mag(U)) = 75.4003 in cell 95 at location (-0.000598615 4.51172e-06 0.05)

Time = 0.55

smoothSolver:  Solving for Ux, Initial residual = 0.00028689, Final residual = 2.21505e-05, No Iterations 6
smoothSolver:  Solving for Uy, Initial residual = 0.00236407, Final residual = 5.87379e-05, No Iterations 1
GAMG:  Solving for p, Initial residual = 0.000362348, Final residual = 2.86479e-05, No Iterations 4
time step continuity errors : sum local = 4.79212e-08, global = -1.30379e-08, cumulative = 7.33324e-07
ExecutionTime = 18.06 s  ClockTime = 20 s

fieldMinMax minMax write:
    min(mag(U)) = 0 in cell 36960 at location (0.000485708 0 0.05)
    max(mag(U)) = 75.3981 in cell 95 at location (-0.000598615 4.51172e-06 0.05)

Time = 0.56

smoothSolver:  Solving for Ux, Initial residual = 0.00028085, Final residual = 2.16803e-05, No Iterations 6
smoothSolver:  Solving for Uy, Initial residual = 0.00231739, Final residual = 5.75913e-05, No Iterations 1
GAMG:  Solving for p, Initial residual = 0.000345236, Final residual = 2.81335e-05, No Iterations 4
time step continuity errors : sum local = 4.74301e-08, global = -1.25751e-08, cumulative = 7.20749e-07
ExecutionTime = 18.35 s  ClockTime = 20 s

fieldMinMax minMax write:
    min(mag(U)) = 0 in cell 36960 at location (0.000485708 0 0.05)
    max(mag(U)) = 75.396 in cell 95 at location (-0.000598615 4.51172e-06 0.05)

Time = 0.57

smoothSolver:  Solving for Ux, Initial residual = 0.000275002, Final residual = 2.12272e-05, No Iterations 6
smoothSolver:  Solving for Uy, Initial residual = 0.00227019, Final residual = 5.64834e-05, No Iterations 1
GAMG:  Solving for p, Initial residual = 0.000330859, Final residual = 2.7897e-05, No Iterations 4
time step continuity errors : sum local = 4.73826e-08, global = -1.26031e-08, cumulative = 7.08145e-07
ExecutionTime = 18.64 s  ClockTime = 20 s

fieldMinMax minMax write:
    min(mag(U)) = 0 in cell 36960 at location (0.000485708 0 0.05)
    max(mag(U)) = 75.3939 in cell 95 at location (-0.000598615 4.51172e-06 0.05)

Time = 0.58

smoothSolver:  Solving for Ux, Initial residual = 0.000269368, Final residual = 2.07903e-05, No Iterations 6
smoothSolver:  Solving for Uy, Initial residual = 0.00222387, Final residual = 5.54115e-05, No Iterations 1
GAMG:  Solving for p, Initial residual = 0.000318275, Final residual = 2.99577e-05, No Iterations 4
time step continuity errors : sum local = 5.12691e-08, global = -1.78677e-08, cumulative = 6.90278e-07
ExecutionTime = 18.91 s  ClockTime = 21 s

fieldMinMax minMax write:
    min(mag(U)) = 0 in cell 36960 at location (0.000485708 0 0.05)
    max(mag(U)) = 75.392 in cell 95 at location (-0.000598615 4.51172e-06 0.05)

Time = 0.59

smoothSolver:  Solving for Ux, Initial residual = 0.000263903, Final residual = 2.03687e-05, No Iterations 6
smoothSolver:  Solving for Uy, Initial residual = 0.00217747, Final residual = 5.43762e-05, No Iterations 1
GAMG:  Solving for p, Initial residual = 0.000309278, Final residual = 2.48879e-05, No Iterations 5
time step continuity errors : sum local = 4.28942e-08, global = 1.50791e-08, cumulative = 7.05357e-07
ExecutionTime = 19.2 s  ClockTime = 21 s

fieldMinMax minMax write:
    min(mag(U)) = 0 in cell 36960 at location (0.000485708 0 0.05)
    max(mag(U)) = 75.39 in cell 95 at location (-0.000598615 4.51172e-06 0.05)

Time = 0.6

smoothSolver:  Solving for Ux, Initial residual = 0.000258726, Final residual = 1.99615e-05, No Iterations 6
smoothSolver:  Solving for Uy, Initial residual = 0.00214048, Final residual = 5.33822e-05, No Iterations 1
GAMG:  Solving for p, Initial residual = 0.000293894, Final residual = 2.10678e-05, No Iterations 5
time step continuity errors : sum local = 3.66655e-08, global = -1.22164e-08, cumulative = 6.93141e-07
ExecutionTime = 19.51 s  ClockTime = 21 s

fieldMinMax minMax write:
    min(mag(U)) = 0 in cell 36960 at location (0.000485708 0 0.05)
    max(mag(U)) = 75.3881 in cell 95 at location (-0.000598615 4.51172e-06 0.05)

Time = 0.61

smoothSolver:  Solving for Ux, Initial residual = 0.000253653, Final residual = 1.95682e-05, No Iterations 6
smoothSolver:  Solving for Uy, Initial residual = 0.00209936, Final residual = 5.2431e-05, No Iterations 1
GAMG:  Solving for p, Initial residual = 0.000282049, Final residual = 2.68348e-05, No Iterations 4
time step continuity errors : sum local = 4.70532e-08, global = -1.65046e-08, cumulative = 6.76636e-07
ExecutionTime = 19.79 s  ClockTime = 22 s

fieldMinMax minMax write:
    min(mag(U)) = 0 in cell 36960 at location (0.000485708 0 0.05)
    max(mag(U)) = 75.3863 in cell 95 at location (-0.000598615 4.51172e-06 0.05)

Time = 0.62

smoothSolver:  Solving for Ux, Initial residual = 0.000248717, Final residual = 1.9188e-05, No Iterations 6
smoothSolver:  Solving for Uy, Initial residual = 0.00205765, Final residual = 5.15012e-05, No Iterations 1
GAMG:  Solving for p, Initial residual = 0.000275787, Final residual = 2.3118e-05, No Iterations 5
time step continuity errors : sum local = 4.082e-08, global = 1.40514e-08, cumulative = 6.90687e-07
ExecutionTime = 20.1 s  ClockTime = 22 s

fieldMinMax minMax write:
    min(mag(U)) = 0 in cell 36960 at location (0.000485708 0 0.05)
    max(mag(U)) = 75.3846 in cell 95 at location (-0.000598615 4.51172e-06 0.05)

Time = 0.63

smoothSolver:  Solving for Ux, Initial residual = 0.000244038, Final residual = 1.88201e-05, No Iterations 6
smoothSolver:  Solving for Uy, Initial residual = 0.00202919, Final residual = 5.06173e-05, No Iterations 1
GAMG:  Solving for p, Initial residual = 0.000261058, Final residual = 2.01243e-05, No Iterations 5
time step continuity errors : sum local = 3.58743e-08, global = -1.12712e-08, cumulative = 6.79416e-07
ExecutionTime = 20.45 s  ClockTime = 22 s

fieldMinMax minMax write:
    min(mag(U)) = 0 in cell 36960 at location (0.000485708 0 0.05)
    max(mag(U)) = 75.3828 in cell 95 at location (-0.000598615 4.51172e-06 0.05)

Time = 0.64

smoothSolver:  Solving for Ux, Initial residual = 0.000239454, Final residual = 1.84641e-05, No Iterations 6
smoothSolver:  Solving for Uy, Initial residual = 0.00199845, Final residual = 4.97744e-05, No Iterations 1
GAMG:  Solving for p, Initial residual = 0.000251112, Final residual = 2.43275e-05, No Iterations 4
time step continuity errors : sum local = 4.36993e-08, global = -1.52004e-08, cumulative = 6.64216e-07
ExecutionTime = 20.74 s  ClockTime = 23 s

fieldMinMax minMax write:
    min(mag(U)) = 0 in cell 36960 at location (0.000485708 0 0.05)
    max(mag(U)) = 75.3812 in cell 95 at location (-0.000598615 4.51172e-06 0.05)

Time = 0.65

smoothSolver:  Solving for Ux, Initial residual = 0.000234988, Final residual = 1.81194e-05, No Iterations 6
smoothSolver:  Solving for Uy, Initial residual = 0.00196994, Final residual = 4.89508e-05, No Iterations 1
GAMG:  Solving for p, Initial residual = 0.00024425, Final residual = 2.10382e-05, No Iterations 5
time step continuity errors : sum local = 3.80588e-08, global = 1.30683e-08, cumulative = 6.77284e-07
ExecutionTime = 21.05 s  ClockTime = 23 s

fieldMinMax minMax write:
    min(mag(U)) = 0 in cell 36960 at location (0.000485708 0 0.05)
    max(mag(U)) = 75.3795 in cell 95 at location (-0.000598615 4.51172e-06 0.05)

Time = 0.66

smoothSolver:  Solving for Ux, Initial residual = 0.000230738, Final residual = 1.77854e-05, No Iterations 6
smoothSolver:  Solving for Uy, Initial residual = 0.00195542, Final residual = 4.81727e-05, No Iterations 1
GAMG:  Solving for p, Initial residual = 0.000231469, Final residual = 1.88865e-05, No Iterations 5
time step continuity errors : sum local = 3.44859e-08, global = -1.05646e-08, cumulative = 6.66719e-07
ExecutionTime = 21.37 s  ClockTime = 23 s

fieldMinMax minMax write:
    min(mag(U)) = 0 in cell 36960 at location (0.000485708 0 0.05)
    max(mag(U)) = 75.378 in cell 95 at location (-0.000598615 4.51172e-06 0.05)

Time = 0.67

smoothSolver:  Solving for Ux, Initial residual = 0.000226569, Final residual = 1.74617e-05, No Iterations 6
smoothSolver:  Solving for Uy, Initial residual = 0.00194049, Final residual = 4.74308e-05, No Iterations 1
GAMG:  Solving for p, Initial residual = 0.000222984, Final residual = 2.19171e-05, No Iterations 4
time step continuity errors : sum local = 4.03244e-08, global = -1.39781e-08, cumulative = 6.52741e-07
ExecutionTime = 21.68 s  ClockTime = 24 s

fieldMinMax minMax write:
    min(mag(U)) = 0 in cell 36960 at location (0.000485708 0 0.05)
    max(mag(U)) = 75.3764 in cell 95 at location (-0.000598615 4.51172e-06 0.05)

Time = 0.68

smoothSolver:  Solving for Ux, Initial residual = 0.000222506, Final residual = 1.71477e-05, No Iterations 6
smoothSolver:  Solving for Uy, Initial residual = 0.00192999, Final residual = 4.67057e-05, No Iterations 1
GAMG:  Solving for p, Initial residual = 0.000216078, Final residual = 1.89939e-05, No Iterations 5
time step continuity errors : sum local = 3.5194e-08, global = 1.22138e-08, cumulative = 6.64955e-07
ExecutionTime = 22.01 s  ClockTime = 24 s

fieldMinMax minMax write:
    min(mag(U)) = 0 in cell 36960 at location (0.000485708 0 0.05)
    max(mag(U)) = 75.3749 in cell 95 at location (-0.000598615 4.51172e-06 0.05)

Time = 0.69

smoothSolver:  Solving for Ux, Initial residual = 0.000218626, Final residual = 1.6843e-05, No Iterations 6
smoothSolver:  Solving for Uy, Initial residual = 0.00193112, Final residual = 4.60233e-05, No Iterations 1
GAMG:  Solving for p, Initial residual = 0.000205059, Final residual = 1.76213e-05, No Iterations 5
time step continuity errors : sum local = 3.29462e-08, global = -1.00692e-08, cumulative = 6.54886e-07
ExecutionTime = 22.34 s  ClockTime = 24 s

fieldMinMax minMax write:
    min(mag(U)) = 0 in cell 36960 at location (0.000485708 0 0.05)
    max(mag(U)) = 75.3735 in cell 95 at location (-0.000598615 4.51172e-06 0.05)

Time = 0.7

smoothSolver:  Solving for Ux, Initial residual = 0.000214818, Final residual = 1.65473e-05, No Iterations 6
smoothSolver:  Solving for Uy, Initial residual = 0.00193045, Final residual = 4.53709e-05, No Iterations 1
GAMG:  Solving for p, Initial residual = 0.000197837, Final residual = 1.59191e-05, No Iterations 5
time step continuity errors : sum local = 2.99863e-08, global = 1.09107e-08, cumulative = 6.65797e-07
ExecutionTime = 22.66 s  ClockTime = 25 s

fieldMinMax minMax write:
    min(mag(U)) = 0 in cell 36960 at location (0.000485708 0 0.05)
    max(mag(U)) = 75.3721 in cell 95 at location (-0.000598615 4.51172e-06 0.05)

Time = 0.71

smoothSolver:  Solving for Ux, Initial residual = 0.000211145, Final residual = 1.62601e-05, No Iterations 6
smoothSolver:  Solving for Uy, Initial residual = 0.00193668, Final residual = 4.47387e-05, No Iterations 1
GAMG:  Solving for p, Initial residual = 0.000187168, Final residual = 1.60069e-05, No Iterations 5
time step continuity errors : sum local = 3.04018e-08, global = -9.49649e-09, cumulative = 6.563e-07
ExecutionTime = 22.98 s  ClockTime = 25 s

fieldMinMax minMax write:
    min(mag(U)) = 0 in cell 36960 at location (0.000485708 0 0.05)
    max(mag(U)) = 75.3707 in cell 95 at location (-0.000598615 4.51172e-06 0.05)

Time = 0.72

smoothSolver:  Solving for Ux, Initial residual = 0.000207524, Final residual = 1.59811e-05, No Iterations 6
smoothSolver:  Solving for Uy, Initial residual = 0.0019409, Final residual = 4.41314e-05, No Iterations 1
GAMG:  Solving for p, Initial residual = 0.000181987, Final residual = 1.51606e-05, No Iterations 5
time step continuity errors : sum local = 2.89915e-08, global = 1.06582e-08, cumulative = 6.66958e-07
ExecutionTime = 23.29 s  ClockTime = 25 s

fieldMinMax minMax write:
    min(mag(U)) = 0 in cell 36960 at location (0.000485708 0 0.05)
    max(mag(U)) = 75.3693 in cell 95 at location (-0.000598615 4.51172e-06 0.05)

Time = 0.73

smoothSolver:  Solving for Ux, Initial residual = 0.000204068, Final residual = 1.57099e-05, No Iterations 6
smoothSolver:  Solving for Uy, Initial residual = 0.00194883, Final residual = 4.35416e-05, No Iterations 1
GAMG:  Solving for p, Initial residual = 0.000173043, Final residual = 1.56072e-05, No Iterations 5
time step continuity errors : sum local = 3.00955e-08, global = -9.38716e-09, cumulative = 6.57571e-07
ExecutionTime = 23.64 s  ClockTime = 26 s

fieldMinMax minMax write:
    min(mag(U)) = 0 in cell 36960 at location (0.000485708 0 0.05)
    max(mag(U)) = 75.368 in cell 95 at location (-0.000598615 4.51172e-06 0.05)

Time = 0.74

smoothSolver:  Solving for Ux, Initial residual = 0.000200654, Final residual = 1.54461e-05, No Iterations 6
smoothSolver:  Solving for Uy, Initial residual = 0.00195104, Final residual = 4.29703e-05, No Iterations 1
GAMG:  Solving for p, Initial residual = 0.000168884, Final residual = 1.43632e-05, No Iterations 5
time step continuity errors : sum local = 2.78908e-08, global = 1.03359e-08, cumulative = 6.67907e-07
ExecutionTime = 23.95 s  ClockTime = 26 s

fieldMinMax minMax write:
    min(mag(U)) = 0 in cell 36960 at location (0.000485708 0 0.05)
    max(mag(U)) = 75.3667 in cell 95 at location (-0.000598615 4.51172e-06 0.05)

Time = 0.75

smoothSolver:  Solving for Ux, Initial residual = 0.00019739, Final residual = 1.51896e-05, No Iterations 6
smoothSolver:  Solving for Uy, Initial residual = 0.00195355, Final residual = 4.24137e-05, No Iterations 1
GAMG:  Solving for p, Initial residual = 0.000160114, Final residual = 1.50251e-05, No Iterations 5
time step continuity errors : sum local = 2.94208e-08, global = -9.26422e-09, cumulative = 6.58643e-07
ExecutionTime = 24.29 s  ClockTime = 26 s

fieldMinMax minMax write:
    min(mag(U)) = 0 in cell 36960 at location (0.000485708 0 0.05)
    max(mag(U)) = 75.3655 in cell 95 at location (-0.000598615 4.51172e-06 0.05)

Time = 0.76

smoothSolver:  Solving for Ux, Initial residual = 0.000194151, Final residual = 1.494e-05, No Iterations 6
smoothSolver:  Solving for Uy, Initial residual = 0.00195009, Final residual = 4.18715e-05, No Iterations 1
GAMG:  Solving for p, Initial residual = 0.000157085, Final residual = 1.36803e-05, No Iterations 5
time step continuity errors : sum local = 2.69712e-08, global = 1.00726e-08, cumulative = 6.68715e-07
ExecutionTime = 24.65 s  ClockTime = 27 s

fieldMinMax minMax write:
    min(mag(U)) = 0 in cell 36960 at location (0.000485708 0 0.05)
    max(mag(U)) = 75.3643 in cell 95 at location (-0.000598615 4.51172e-06 0.05)

Time = 0.77

smoothSolver:  Solving for Ux, Initial residual = 0.000191061, Final residual = 1.4697e-05, No Iterations 6
smoothSolver:  Solving for Uy, Initial residual = 0.00194743, Final residual = 4.13424e-05, No Iterations 1
GAMG:  Solving for p, Initial residual = 0.000148705, Final residual = 1.44784e-05, No Iterations 5
time step continuity errors : sum local = 2.87821e-08, global = -9.10999e-09, cumulative = 6.59605e-07
ExecutionTime = 24.97 s  ClockTime = 27 s

fieldMinMax minMax write:
    min(mag(U)) = 0 in cell 36960 at location (0.000485708 0 0.05)
    max(mag(U)) = 75.3631 in cell 95 at location (-0.000598615 4.51172e-06 0.05)

Time = 0.78

smoothSolver:  Solving for Ux, Initial residual = 0.000187987, Final residual = 1.44604e-05, No Iterations 6
smoothSolver:  Solving for Uy, Initial residual = 0.00193976, Final residual = 4.0827e-05, No Iterations 1
GAMG:  Solving for p, Initial residual = 0.000146585, Final residual = 1.30889e-05, No Iterations 5
time step continuity errors : sum local = 2.6197e-08, global = 9.83346e-09, cumulative = 6.69439e-07
ExecutionTime = 25.29 s  ClockTime = 27 s

fieldMinMax minMax write:
    min(mag(U)) = 0 in cell 36960 at location (0.000485708 0 0.05)
    max(mag(U)) = 75.3619 in cell 95 at location (-0.000598615 4.51172e-06 0.05)

Time = 0.79

smoothSolver:  Solving for Ux, Initial residual = 0.000185056, Final residual = 1.42299e-05, No Iterations 6
smoothSolver:  Solving for Uy, Initial residual = 0.00193314, Final residual = 4.03237e-05, No Iterations 1
GAMG:  Solving for p, Initial residual = 0.000139173, Final residual = 1.10197e-05, No Iterations 6
time step continuity errors : sum local = 2.22374e-08, global = 9.36488e-09, cumulative = 6.78804e-07
ExecutionTime = 25.65 s  ClockTime = 28 s

fieldMinMax minMax write:
    min(mag(U)) = 0 in cell 36960 at location (0.000485708 0 0.05)
    max(mag(U)) = 75.3608 in cell 95 at location (-0.000598615 4.51172e-06 0.05)

Time = 0.8

smoothSolver:  Solving for Ux, Initial residual = 0.000182167, Final residual = 1.40053e-05, No Iterations 6
smoothSolver:  Solving for Uy, Initial residual = 0.00192406, Final residual = 3.9837e-05, No Iterations 1
GAMG:  Solving for p, Initial residual = 0.000134754, Final residual = 1.06039e-05, No Iterations 6
time step continuity errors : sum local = 2.15613e-08, global = 9.16017e-09, cumulative = 6.87964e-07
ExecutionTime = 25.98 s  ClockTime = 28 s

fieldMinMax minMax write:
    min(mag(U)) = 0 in cell 36960 at location (0.000485708 0 0.05)
    max(mag(U)) = 75.3597 in cell 95 at location (-0.000598615 4.51172e-06 0.05)

Time = 0.81

smoothSolver:  Solving for Ux, Initial residual = 0.000179338, Final residual = 1.37864e-05, No Iterations 6
smoothSolver:  Solving for Uy, Initial residual = 0.00191224, Final residual = 3.93566e-05, No Iterations 1
GAMG:  Solving for p, Initial residual = 0.000131097, Final residual = 1.0521e-05, No Iterations 6
time step continuity errors : sum local = 2.15466e-08, global = 9.16319e-09, cumulative = 6.97127e-07
ExecutionTime = 26.34 s  ClockTime = 28 s

fieldMinMax minMax write:
    min(mag(U)) = 0 in cell 36960 at location (0.000485708 0 0.05)
    max(mag(U)) = 75.3586 in cell 95 at location (-0.000598615 4.51172e-06 0.05)

Time = 0.82

smoothSolver:  Solving for Ux, Initial residual = 0.00017659, Final residual = 1.3573e-05, No Iterations 6
smoothSolver:  Solving for Uy, Initial residual = 0.00189986, Final residual = 3.88875e-05, No Iterations 1
GAMG:  Solving for p, Initial residual = 0.000128052, Final residual = 1.04963e-05, No Iterations 6
time step continuity errors : sum local = 2.16538e-08, global = 9.21803e-09, cumulative = 7.06345e-07
ExecutionTime = 26.69 s  ClockTime = 29 s

fieldMinMax minMax write:
    min(mag(U)) = 0 in cell 36960 at location (0.000485708 0 0.05)
    max(mag(U)) = 75.3575 in cell 95 at location (-0.000598615 4.51172e-06 0.05)

Time = 0.83

smoothSolver:  Solving for Ux, Initial residual = 0.000173911, Final residual = 1.33647e-05, No Iterations 6
smoothSolver:  Solving for Uy, Initial residual = 0.00188695, Final residual = 3.84309e-05, No Iterations 1
GAMG:  Solving for p, Initial residual = 0.000125348, Final residual = 1.04481e-05, No Iterations 6
time step continuity errors : sum local = 2.17142e-08, global = 9.25523e-09, cumulative = 7.156e-07
ExecutionTime = 27.04 s  ClockTime = 29 s

fieldMinMax minMax write:
    min(mag(U)) = 0 in cell 36960 at location (0.000485708 0 0.05)
    max(mag(U)) = 75.3565 in cell 95 at location (-0.000598615 4.51172e-06 0.05)

Time = 0.84

smoothSolver:  Solving for Ux, Initial residual = 0.000171298, Final residual = 1.31616e-05, No Iterations 6
smoothSolver:  Solving for Uy, Initial residual = 0.00187324, Final residual = 3.79853e-05, No Iterations 1
GAMG:  Solving for p, Initial residual = 0.00012275, Final residual = 1.04302e-05, No Iterations 6
time step continuity errors : sum local = 2.18376e-08, global = 9.32172e-09, cumulative = 7.24922e-07
ExecutionTime = 27.38 s  ClockTime = 29 s

fieldMinMax minMax write:
    min(mag(U)) = 0 in cell 36960 at location (0.000485708 0 0.05)
    max(mag(U)) = 75.3555 in cell 95 at location (-0.000598615 4.51172e-06 0.05)

Time = 0.85

smoothSolver:  Solving for Ux, Initial residual = 0.000168747, Final residual = 1.29634e-05, No Iterations 6
smoothSolver:  Solving for Uy, Initial residual = 0.00185871, Final residual = 3.75498e-05, No Iterations 1
GAMG:  Solving for p, Initial residual = 0.000120282, Final residual = 1.03422e-05, No Iterations 6
time step continuity errors : sum local = 2.18133e-08, global = 9.32048e-09, cumulative = 7.34243e-07
ExecutionTime = 27.73 s  ClockTime = 30 s

fieldMinMax minMax write:
    min(mag(U)) = 0 in cell 36960 at location (0.000485708 0 0.05)
    max(mag(U)) = 75.3545 in cell 95 at location (-0.000598615 4.51172e-06 0.05)

Time = 0.86

smoothSolver:  Solving for Ux, Initial residual = 0.000166256, Final residual = 1.27698e-05, No Iterations 6
smoothSolver:  Solving for Uy, Initial residual = 0.00184361, Final residual = 3.71242e-05, No Iterations 1
GAMG:  Solving for p, Initial residual = 0.000117884, Final residual = 1.02159e-05, No Iterations 6
time step continuity errors : sum local = 2.17059e-08, global = 9.28092e-09, cumulative = 7.43524e-07
ExecutionTime = 28.05 s  ClockTime = 30 s

fieldMinMax minMax write:
    min(mag(U)) = 0 in cell 36960 at location (0.000485708 0 0.05)
    max(mag(U)) = 75.3535 in cell 95 at location (-0.000598615 4.51172e-06 0.05)

Time = 0.87

smoothSolver:  Solving for Ux, Initial residual = 0.000163824, Final residual = 1.25808e-05, No Iterations 6
smoothSolver:  Solving for Uy, Initial residual = 0.00182792, Final residual = 3.6708e-05, No Iterations 1
GAMG:  Solving for p, Initial residual = 0.000115536, Final residual = 1.00799e-05, No Iterations 6
time step continuity errors : sum local = 2.15746e-08, global = 9.22809e-09, cumulative = 7.52752e-07
ExecutionTime = 28.43 s  ClockTime = 30 s

fieldMinMax minMax write:
    min(mag(U)) = 0 in cell 36960 at location (0.000485708 0 0.05)
    max(mag(U)) = 75.3525 in cell 95 at location (-0.000598615 4.51172e-06 0.05)

Time = 0.88

smoothSolver:  Solving for Ux, Initial residual = 0.000161447, Final residual = 1.23962e-05, No Iterations 6
smoothSolver:  Solving for Uy, Initial residual = 0.00181169, Final residual = 3.63007e-05, No Iterations 1
GAMG:  Solving for p, Initial residual = 0.000113239, Final residual = 9.94499e-06, No Iterations 6
time step continuity errors : sum local = 2.14422e-08, global = 9.17219e-09, cumulative = 7.61924e-07
ExecutionTime = 28.77 s  ClockTime = 31 s

fieldMinMax minMax write:
    min(mag(U)) = 0 in cell 36960 at location (0.000485708 0 0.05)
    max(mag(U)) = 75.3516 in cell 95 at location (-0.000598615 4.51172e-06 0.05)

Time = 0.89

smoothSolver:  Solving for Ux, Initial residual = 0.000159125, Final residual = 1.22158e-05, No Iterations 6
smoothSolver:  Solving for Uy, Initial residual = 0.00179502, Final residual = 3.59022e-05, No Iterations 1
GAMG:  Solving for p, Initial residual = 0.000111028, Final residual = 9.81342e-06, No Iterations 6
time step continuity errors : sum local = 2.13137e-08, global = 9.11604e-09, cumulative = 7.7104e-07
ExecutionTime = 29.1 s  ClockTime = 31 s

fieldMinMax minMax write:
    min(mag(U)) = 0 in cell 36960 at location (0.000485708 0 0.05)
    max(mag(U)) = 75.3507 in cell 95 at location (-0.000598615 4.51172e-06 0.05)

Time = 0.9

smoothSolver:  Solving for Ux, Initial residual = 0.000156855, Final residual = 1.20395e-05, No Iterations 6
smoothSolver:  Solving for Uy, Initial residual = 0.00177798, Final residual = 3.5512e-05, No Iterations 1
GAMG:  Solving for p, Initial residual = 0.000108901, Final residual = 9.68588e-06, No Iterations 6
time step continuity errors : sum local = 2.11908e-08, global = 9.0609e-09, cumulative = 7.80101e-07
ExecutionTime = 29.45 s  ClockTime = 31 s

fieldMinMax minMax write:
    min(mag(U)) = 0 in cell 36960 at location (0.000485708 0 0.05)
    max(mag(U)) = 75.3498 in cell 95 at location (-0.000598615 4.51172e-06 0.05)

Time = 0.91

smoothSolver:  Solving for Ux, Initial residual = 0.000154636, Final residual = 1.18672e-05, No Iterations 6
smoothSolver:  Solving for Uy, Initial residual = 0.00176063, Final residual = 3.513e-05, No Iterations 1
GAMG:  Solving for p, Initial residual = 0.000106799, Final residual = 9.5635e-06, No Iterations 6
time step continuity errors : sum local = 2.10763e-08, global = 9.00811e-09, cumulative = 7.89109e-07
ExecutionTime = 29.79 s  ClockTime = 32 s

fieldMinMax minMax write:
    min(mag(U)) = 0 in cell 36960 at location (0.000485708 0 0.05)
    max(mag(U)) = 75.3489 in cell 95 at location (-0.000598615 4.51172e-06 0.05)

Time = 0.92

smoothSolver:  Solving for Ux, Initial residual = 0.000152465, Final residual = 1.16987e-05, No Iterations 6
smoothSolver:  Solving for Uy, Initial residual = 0.00174303, Final residual = 3.47557e-05, No Iterations 1
GAMG:  Solving for p, Initial residual = 0.000104739, Final residual = 9.44758e-06, No Iterations 6
time step continuity errors : sum local = 2.09731e-08, global = 8.95912e-09, cumulative = 7.98068e-07
ExecutionTime = 30.15 s  ClockTime = 32 s

fieldMinMax minMax write:
    min(mag(U)) = 0 in cell 36960 at location (0.000485708 0 0.05)
    max(mag(U)) = 75.3481 in cell 95 at location (-0.000598615 4.51172e-06 0.05)

Time = 0.93

smoothSolver:  Solving for Ux, Initial residual = 0.000150342, Final residual = 1.15339e-05, No Iterations 6
smoothSolver:  Solving for Uy, Initial residual = 0.00172525, Final residual = 3.4389e-05, No Iterations 1
GAMG:  Solving for p, Initial residual = 0.000102734, Final residual = 9.33914e-06, No Iterations 6
time step continuity errors : sum local = 2.0884e-08, global = 8.91501e-09, cumulative = 8.06983e-07
ExecutionTime = 30.52 s  ClockTime = 33 s

fieldMinMax minMax write:
    min(mag(U)) = 0 in cell 36960 at location (0.000485708 0 0.05)
    max(mag(U)) = 75.3472 in cell 95 at location (-0.000598615 4.51172e-06 0.05)

Time = 0.94

smoothSolver:  Solving for Ux, Initial residual = 0.000148265, Final residual = 1.13727e-05, No Iterations 6
smoothSolver:  Solving for Uy, Initial residual = 0.00170736, Final residual = 3.40295e-05, No Iterations 1
GAMG:  Solving for p, Initial residual = 0.000100797, Final residual = 9.23882e-06, No Iterations 6
time step continuity errors : sum local = 2.08108e-08, global = 8.87642e-09, cumulative = 8.15859e-07
ExecutionTime = 30.86 s  ClockTime = 33 s

fieldMinMax minMax write:
    min(mag(U)) = 0 in cell 36960 at location (0.000485708 0 0.05)
    max(mag(U)) = 75.3464 in cell 95 at location (-0.000598615 4.51172e-06 0.05)

Time = 0.95

smoothSolver:  Solving for Ux, Initial residual = 0.000146232, Final residual = 1.12149e-05, No Iterations 6
smoothSolver:  Solving for Uy, Initial residual = 0.00168943, Final residual = 3.36771e-05, No Iterations 1
GAMG:  Solving for p, Initial residual = 9.89197e-05, Final residual = 9.14659e-06, No Iterations 6
time step continuity errors : sum local = 2.07537e-08, global = 8.84359e-09, cumulative = 8.24703e-07
ExecutionTime = 31.2 s  ClockTime = 33 s

fieldMinMax minMax write:
    min(mag(U)) = 0 in cell 36960 at location (0.000485708 0 0.05)
    max(mag(U)) = 75.3456 in cell 95 at location (-0.000598615 4.51172e-06 0.05)

Time = 0.96

smoothSolver:  Solving for Ux, Initial residual = 0.000144242, Final residual = 1.10605e-05, No Iterations 6
smoothSolver:  Solving for Uy, Initial residual = 0.00167153, Final residual = 3.33316e-05, No Iterations 1
GAMG:  Solving for p, Initial residual = 9.71128e-05, Final residual = 9.06216e-06, No Iterations 6
time step continuity errors : sum local = 2.07125e-08, global = 8.81652e-09, cumulative = 8.3352e-07
ExecutionTime = 31.54 s  ClockTime = 34 s

fieldMinMax minMax write:
    min(mag(U)) = 0 in cell 36960 at location (0.000485708 0 0.05)
    max(mag(U)) = 75.3448 in cell 95 at location (-0.000598615 4.51172e-06 0.05)

Time = 0.97

smoothSolver:  Solving for Ux, Initial residual = 0.000142294, Final residual = 1.09093e-05, No Iterations 6
smoothSolver:  Solving for Uy, Initial residual = 0.00165373, Final residual = 3.29926e-05, No Iterations 1
GAMG:  Solving for p, Initial residual = 9.53641e-05, Final residual = 8.98523e-06, No Iterations 6
time step continuity errors : sum local = 2.06869e-08, global = 8.79505e-09, cumulative = 8.42315e-07
ExecutionTime = 31.89 s  ClockTime = 34 s

fieldMinMax minMax write:
    min(mag(U)) = 0 in cell 36960 at location (0.000485708 0 0.05)
    max(mag(U)) = 75.344 in cell 95 at location (-0.000598615 4.51172e-06 0.05)

Time = 0.98

smoothSolver:  Solving for Ux, Initial residual = 0.000140386, Final residual = 1.07613e-05, No Iterations 6
smoothSolver:  Solving for Uy, Initial residual = 0.00163609, Final residual = 3.266e-05, No Iterations 1
GAMG:  Solving for p, Initial residual = 9.36692e-05, Final residual = 8.91561e-06, No Iterations 6
time step continuity errors : sum local = 2.06768e-08, global = 8.77888e-09, cumulative = 8.51093e-07
ExecutionTime = 32.25 s  ClockTime = 34 s

fieldMinMax minMax write:
    min(mag(U)) = 0 in cell 36960 at location (0.000485708 0 0.05)
    max(mag(U)) = 75.3433 in cell 95 at location (-0.000598615 4.51172e-06 0.05)

Time = 0.99

smoothSolver:  Solving for Ux, Initial residual = 0.000138517, Final residual = 1.06163e-05, No Iterations 6
smoothSolver:  Solving for Uy, Initial residual = 0.00161869, Final residual = 3.23337e-05, No Iterations 1
GAMG:  Solving for p, Initial residual = 9.20019e-05, Final residual = 8.85301e-06, No Iterations 6
time step continuity errors : sum local = 2.06818e-08, global = 8.76765e-09, cumulative = 8.59861e-07
ExecutionTime = 32.63 s  ClockTime = 35 s

fieldMinMax minMax write:
    min(mag(U)) = 0 in cell 36960 at location (0.000485708 0 0.05)
    max(mag(U)) = 75.3425 in cell 95 at location (-0.000598615 4.51172e-06 0.05)

Time = 1

smoothSolver:  Solving for Ux, Initial residual = 0.000136686, Final residual = 1.04742e-05, No Iterations 6
smoothSolver:  Solving for Uy, Initial residual = 0.00160159, Final residual = 3.20134e-05, No Iterations 1
GAMG:  Solving for p, Initial residual = 9.03638e-05, Final residual = 8.79722e-06, No Iterations 6
time step continuity errors : sum local = 2.07019e-08, global = 8.76095e-09, cumulative = 8.68622e-07
ExecutionTime = 33.5 s  ClockTime = 36 s

fieldMinMax minMax write:
    min(mag(U)) = 0 in cell 36960 at location (0.000485708 0 0.05)
    max(mag(U)) = 75.3418 in cell 95 at location (-0.000598615 4.51172e-06 0.05)

yPlus yPlus write:
    writing field yPlus
    patch topWall y+ : min = 0.0400964, max = 0.332368, average = 0.274453
    patch bottomWall y+ : min = 0.469948, max = 2.25922, average = 0.522891
writeCellCentres writeCellCentres write:
    writing cell-volumes field C to 1
    Writing the x component field of the cell-centres Cx to 1
    Writing the y component field of the cell-centres Cy to 1
    Writing the z component field of the cell-centres Cz to 1
wallShearStress wallShearStress write:
    writing field wallShearStress
    min/max(topWall) = (-2.0877e-09 -4.32114e-07 0), (6.82261e-09 -6.61377e-09 0)
    min/max(bottomWall) = (-48.3043 -0.931632 0), (-2.09023 1.66121e-09 0)
Time = 1.01

smoothSolver:  Solving for Ux, Initial residual = 0.000134891, Final residual = 1.03351e-05, No Iterations 6
smoothSolver:  Solving for Uy, Initial residual = 0.00158486, Final residual = 3.16989e-05, No Iterations 1
GAMG:  Solving for p, Initial residual = 8.87732e-05, Final residual = 8.74736e-06, No Iterations 6
time step continuity errors : sum local = 2.07353e-08, global = 8.75832e-09, cumulative = 8.7738e-07
ExecutionTime = 34.3 s  ClockTime = 37 s

fieldMinMax minMax write:
    min(mag(U)) = 0 in cell 36960 at location (0.000485708 0 0.05)
    max(mag(U)) = 75.3411 in cell 95 at location (-0.000598615 4.51172e-06 0.05)

Time = 1.02

smoothSolver:  Solving for Ux, Initial residual = 0.000133133, Final residual = 1.01987e-05, No Iterations 6
smoothSolver:  Solving for Uy, Initial residual = 0.00156852, Final residual = 3.13899e-05, No Iterations 1
GAMG:  Solving for p, Initial residual = 8.72391e-05, Final residual = 8.70278e-06, No Iterations 6
time step continuity errors : sum local = 2.07807e-08, global = 8.7593e-09, cumulative = 8.8614e-07
ExecutionTime = 34.72 s  ClockTime = 38 s

fieldMinMax minMax write:
    min(mag(U)) = 0 in cell 36960 at location (0.000485708 0 0.05)
    max(mag(U)) = 75.3404 in cell 95 at location (-0.000598615 4.51172e-06 0.05)

Time = 1.03

smoothSolver:  Solving for Ux, Initial residual = 0.000131408, Final residual = 1.0065e-05, No Iterations 6
smoothSolver:  Solving for Uy, Initial residual = 0.00155245, Final residual = 3.10864e-05, No Iterations 1
GAMG:  Solving for p, Initial residual = 8.57558e-05, Final residual = 5.93659e-06, No Iterations 7
time step continuity errors : sum local = 1.42793e-08, global = -4.60241e-09, cumulative = 8.81537e-07
ExecutionTime = 35.11 s  ClockTime = 38 s

fieldMinMax minMax write:
    min(mag(U)) = 0 in cell 36960 at location (0.000485708 0 0.05)
    max(mag(U)) = 75.3397 in cell 95 at location (-0.000598615 4.51172e-06 0.05)

Time = 1.04

smoothSolver:  Solving for Ux, Initial residual = 0.000129725, Final residual = 9.93387e-06, No Iterations 6
smoothSolver:  Solving for Uy, Initial residual = 0.00153703, Final residual = 3.07898e-05, No Iterations 1
GAMG:  Solving for p, Initial residual = 8.26552e-05, Final residual = 6.42232e-06, No Iterations 5
time step continuity errors : sum local = 1.556e-08, global = 5.66624e-09, cumulative = 8.87203e-07
ExecutionTime = 35.45 s  ClockTime = 38 s

fieldMinMax minMax write:
    min(mag(U)) = 0 in cell 36960 at location (0.000485708 0 0.05)
    max(mag(U)) = 75.339 in cell 95 at location (-0.000598615 4.51172e-06 0.05)

Time = 1.05

smoothSolver:  Solving for Ux, Initial residual = 0.000128068, Final residual = 9.80531e-06, No Iterations 6
smoothSolver:  Solving for Uy, Initial residual = 0.00152071, Final residual = 3.04959e-05, No Iterations 1
GAMG:  Solving for p, Initial residual = 8.10486e-05, Final residual = 7.71292e-06, No Iterations 6
time step continuity errors : sum local = 1.88266e-08, global = 7.77865e-09, cumulative = 8.94982e-07
ExecutionTime = 35.86 s  ClockTime = 39 s

fieldMinMax minMax write:
    min(mag(U)) = 0 in cell 36960 at location (0.000485708 0 0.05)
    max(mag(U)) = 75.3384 in cell 95 at location (-0.000598615 4.51172e-06 0.05)

Time = 1.06

smoothSolver:  Solving for Ux, Initial residual = 0.000126418, Final residual = 9.67923e-06, No Iterations 6
smoothSolver:  Solving for Uy, Initial residual = 0.00150451, Final residual = 3.02055e-05, No Iterations 1
GAMG:  Solving for p, Initial residual = 8.14187e-05, Final residual = 5.80478e-06, No Iterations 7
time step continuity errors : sum local = 1.42677e-08, global = -4.53468e-09, cumulative = 8.90447e-07
ExecutionTime = 36.27 s  ClockTime = 39 s

fieldMinMax minMax write:
    min(mag(U)) = 0 in cell 36960 at location (0.000485708 0 0.05)
    max(mag(U)) = 75.3377 in cell 95 at location (-0.000598615 4.51172e-06 0.05)

Time = 1.07

smoothSolver:  Solving for Ux, Initial residual = 0.000124838, Final residual = 9.55555e-06, No Iterations 6
smoothSolver:  Solving for Uy, Initial residual = 0.0014897, Final residual = 2.99236e-05, No Iterations 1
GAMG:  Solving for p, Initial residual = 7.86274e-05, Final residual = 6.55826e-06, No Iterations 5
time step continuity errors : sum local = 1.62392e-08, global = 5.96579e-09, cumulative = 8.96413e-07
ExecutionTime = 36.66 s  ClockTime = 40 s

fieldMinMax minMax write:
    min(mag(U)) = 0 in cell 36960 at location (0.000485708 0 0.05)
    max(mag(U)) = 75.3371 in cell 95 at location (-0.000598615 4.51172e-06 0.05)

Time = 1.08

smoothSolver:  Solving for Ux, Initial residual = 0.000123279, Final residual = 9.43419e-06, No Iterations 6
smoothSolver:  Solving for Uy, Initial residual = 0.00147436, Final residual = 2.96453e-05, No Iterations 1
GAMG:  Solving for p, Initial residual = 7.71827e-05, Final residual = 7.65327e-06, No Iterations 6
time step continuity errors : sum local = 1.9094e-08, global = 7.82536e-09, cumulative = 9.04239e-07
ExecutionTime = 37 s  ClockTime = 40 s

fieldMinMax minMax write:
    min(mag(U)) = 0 in cell 36960 at location (0.000485708 0 0.05)
    max(mag(U)) = 75.3365 in cell 95 at location (-0.000598615 4.51172e-06 0.05)

Time = 1.09

smoothSolver:  Solving for Ux, Initial residual = 0.000121719, Final residual = 9.3151e-06, No Iterations 6
smoothSolver:  Solving for Uy, Initial residual = 0.00145866, Final residual = 2.93692e-05, No Iterations 1
GAMG:  Solving for p, Initial residual = 7.75265e-05, Final residual = 5.70838e-06, No Iterations 7
time step continuity errors : sum local = 1.43408e-08, global = -4.47552e-09, cumulative = 8.99763e-07
ExecutionTime = 37.37 s  ClockTime = 40 s

fieldMinMax minMax write:
    min(mag(U)) = 0 in cell 36960 at location (0.000485708 0 0.05)
    max(mag(U)) = 75.3358 in cell 95 at location (-0.000598615 4.51172e-06 0.05)

Time = 1.1

smoothSolver:  Solving for Ux, Initial residual = 0.000120225, Final residual = 9.1982e-06, No Iterations 6
smoothSolver:  Solving for Uy, Initial residual = 0.00144439, Final residual = 2.9101e-05, No Iterations 1
GAMG:  Solving for p, Initial residual = 7.49962e-05, Final residual = 6.58271e-06, No Iterations 5
time step continuity errors : sum local = 1.66595e-08, global = 6.11395e-09, cumulative = 9.05877e-07
ExecutionTime = 37.73 s  ClockTime = 41 s

fieldMinMax minMax write:
    min(mag(U)) = 0 in cell 36960 at location (0.000485708 0 0.05)
    max(mag(U)) = 75.3352 in cell 95 at location (-0.000598615 4.51172e-06 0.05)

Time = 1.11

smoothSolver:  Solving for Ux, Initial residual = 0.00011875, Final residual = 9.08345e-06, No Iterations 6
smoothSolver:  Solving for Uy, Initial residual = 0.00142968, Final residual = 2.8836e-05, No Iterations 1
GAMG:  Solving for p, Initial residual = 7.38908e-05, Final residual = 5.15142e-06, No Iterations 7
time step continuity errors : sum local = 1.31355e-08, global = -4.05053e-09, cumulative = 9.01827e-07
ExecutionTime = 38.11 s  ClockTime = 41 s

fieldMinMax minMax write:
    min(mag(U)) = 0 in cell 36960 at location (0.000485708 0 0.05)
    max(mag(U)) = 75.3346 in cell 95 at location (-0.000598615 4.51172e-06 0.05)

Time = 1.12

smoothSolver:  Solving for Ux, Initial residual = 0.000117278, Final residual = 8.97079e-06, No Iterations 6
smoothSolver:  Solving for Uy, Initial residual = 0.00141515, Final residual = 2.85742e-05, No Iterations 1
GAMG:  Solving for p, Initial residual = 7.27017e-05, Final residual = 5.99395e-06, No Iterations 5
time step continuity errors : sum local = 1.53891e-08, global = 5.33224e-09, cumulative = 9.07159e-07
ExecutionTime = 38.46 s  ClockTime = 41 s

fieldMinMax minMax write:
    min(mag(U)) = 0 in cell 36960 at location (0.000485708 0 0.05)
    max(mag(U)) = 75.3341 in cell 95 at location (-0.000598615 4.51172e-06 0.05)

Time = 1.13

smoothSolver:  Solving for Ux, Initial residual = 0.000115863, Final residual = 8.86015e-06, No Iterations 6
smoothSolver:  Solving for Uy, Initial residual = 0.00140078, Final residual = 2.83167e-05, No Iterations 1
GAMG:  Solving for p, Initial residual = 7.14574e-05, Final residual = 6.66004e-06, No Iterations 6
time step continuity errors : sum local = 1.72291e-08, global = 6.76607e-09, cumulative = 9.13925e-07
ExecutionTime = 38.81 s  ClockTime = 42 s

fieldMinMax minMax write:
    min(mag(U)) = 0 in cell 36960 at location (0.000485708 0 0.05)
    max(mag(U)) = 75.3335 in cell 95 at location (-0.000598615 4.51172e-06 0.05)

Time = 1.14

smoothSolver:  Solving for Ux, Initial residual = 0.000114441, Final residual = 8.75149e-06, No Iterations 6
smoothSolver:  Solving for Uy, Initial residual = 0.00138677, Final residual = 2.80624e-05, No Iterations 1
GAMG:  Solving for p, Initial residual = 7.16038e-05, Final residual = 5.44772e-06, No Iterations 7
time step continuity errors : sum local = 1.41915e-08, global = -4.28613e-09, cumulative = 9.09639e-07
ExecutionTime = 39.22 s  ClockTime = 42 s

fieldMinMax minMax write:
    min(mag(U)) = 0 in cell 36960 at location (0.000485708 0 0.05)
    max(mag(U)) = 75.3329 in cell 95 at location (-0.000598615 4.51172e-06 0.05)

Time = 1.15

smoothSolver:  Solving for Ux, Initial residual = 0.000113071, Final residual = 8.64476e-06, No Iterations 6
smoothSolver:  Solving for Uy, Initial residual = 0.00137324, Final residual = 2.78137e-05, No Iterations 1
GAMG:  Solving for p, Initial residual = 6.99872e-05, Final residual = 6.11085e-06, No Iterations 5
time step continuity errors : sum local = 1.60342e-08, global = 5.5986e-09, cumulative = 9.15237e-07
ExecutionTime = 39.57 s  ClockTime = 43 s

fieldMinMax minMax write:
    min(mag(U)) = 0 in cell 36960 at location (0.000485708 0 0.05)
    max(mag(U)) = 75.3324 in cell 95 at location (-0.000598615 4.51172e-06 0.05)

Time = 1.16

smoothSolver:  Solving for Ux, Initial residual = 0.000111727, Final residual = 8.53989e-06, No Iterations 6
smoothSolver:  Solving for Uy, Initial residual = 0.00136013, Final residual = 2.75691e-05, No Iterations 1
GAMG:  Solving for p, Initial residual = 6.86501e-05, Final residual = 6.63293e-06, No Iterations 6
time step continuity errors : sum local = 1.75353e-08, global = 6.86688e-09, cumulative = 9.22104e-07
ExecutionTime = 39.92 s  ClockTime = 43 s

fieldMinMax minMax write:
    min(mag(U)) = 0 in cell 36960 at location (0.000485708 0 0.05)
    max(mag(U)) = 75.3318 in cell 95 at location (-0.000598615 4.51172e-06 0.05)

Time = 1.17

smoothSolver:  Solving for Ux, Initial residual = 0.000110374, Final residual = 8.43686e-06, No Iterations 6
smoothSolver:  Solving for Uy, Initial residual = 0.00134652, Final residual = 2.73253e-05, No Iterations 1
GAMG:  Solving for p, Initial residual = 6.88519e-05, Final residual = 4.8702e-06, No Iterations 7
time step continuity errors : sum local = 1.29639e-08, global = -3.84865e-09, cumulative = 9.18256e-07
ExecutionTime = 40.29 s  ClockTime = 43 s

fieldMinMax minMax write:
    min(mag(U)) = 0 in cell 36960 at location (0.000485708 0 0.05)
    max(mag(U)) = 75.3313 in cell 95 at location (-0.000598615 4.51172e-06 0.05)

Time = 1.18

smoothSolver:  Solving for Ux, Initial residual = 0.000109077, Final residual = 8.3356e-06, No Iterations 6
smoothSolver:  Solving for Uy, Initial residual = 0.0013342, Final residual = 2.70884e-05, No Iterations 1
GAMG:  Solving for p, Initial residual = 6.67754e-05, Final residual = 5.49212e-06, No Iterations 5
time step continuity errors : sum local = 1.47256e-08, global = 4.80678e-09, cumulative = 9.23062e-07
ExecutionTime = 40.61 s  ClockTime = 44 s

fieldMinMax minMax write:
    min(mag(U)) = 0 in cell 36960 at location (0.000485708 0 0.05)
    max(mag(U)) = 75.3308 in cell 95 at location (-0.000598615 4.51172e-06 0.05)

Time = 1.19

smoothSolver:  Solving for Ux, Initial residual = 0.000107793, Final residual = 8.23607e-06, No Iterations 6
smoothSolver:  Solving for Uy, Initial residual = 0.0013212, Final residual = 2.68527e-05, No Iterations 1
GAMG:  Solving for p, Initial residual = 6.56639e-05, Final residual = 6.47615e-06, No Iterations 6
time step continuity errors : sum local = 1.74907e-08, global = 6.7254e-09, cumulative = 9.29788e-07
ExecutionTime = 40.97 s  ClockTime = 44 s

fieldMinMax minMax write:
[...]
ExecutionTime = 1538.78 s  ClockTime = 1653 s

fieldMinMax minMax write:
    min(mag(U)) = 0 in cell 36960 at location (0.000485708 0 0.05)
    max(mag(U)) = 75.2963 in cell 95 at location (-0.000598615 4.51172e-06 0.05)

Time = 59.72

smoothSolver:  Solving for Ux, Initial residual = 8.63093e-11, Final residual = 8.63093e-11, No Iterations 0
smoothSolver:  Solving for Uy, Initial residual = 4.05952e-10, Final residual = 4.60264e-12, No Iterations 1
GAMG:  Solving for p, Initial residual = 1.91193e-08, Final residual = 4.57845e-12, No Iterations 1
time step continuity errors : sum local = 4.87457e-14, global = -6.74116e-15, cumulative = 4.95052e-07
ExecutionTime = 1538.95 s  ClockTime = 1653 s

fieldMinMax minMax write:
    min(mag(U)) = 0 in cell 36960 at location (0.000485708 0 0.05)
    max(mag(U)) = 75.2963 in cell 95 at location (-0.000598615 4.51172e-06 0.05)

Time = 59.73

smoothSolver:  Solving for Ux, Initial residual = 1.19719e-10, Final residual = 1.46856e-12, No Iterations 1
smoothSolver:  Solving for Uy, Initial residual = 5.24413e-10, Final residual = 6.00638e-12, No Iterations 1
GAMG:  Solving for p, Initial residual = 4.80658e-09, Final residual = 2.3134e-12, No Iterations 1
time step continuity errors : sum local = 2.97959e-14, global = -8.01675e-15, cumulative = 4.95052e-07
ExecutionTime = 1539.14 s  ClockTime = 1653 s

fieldMinMax minMax write:
    min(mag(U)) = 0 in cell 36960 at location (0.000485708 0 0.05)
    max(mag(U)) = 75.2963 in cell 95 at location (-0.000598615 4.51172e-06 0.05)

Time = 59.74

smoothSolver:  Solving for Ux, Initial residual = 6.45308e-11, Final residual = 6.45308e-11, No Iterations 0
smoothSolver:  Solving for Uy, Initial residual = 3.5567e-10, Final residual = 3.92572e-12, No Iterations 1
GAMG:  Solving for p, Initial residual = 1.32586e-08, Final residual = 3.41787e-12, No Iterations 1
time step continuity errors : sum local = 3.91381e-14, global = -9.72235e-15, cumulative = 4.95052e-07
ExecutionTime = 1539.32 s  ClockTime = 1653 s

fieldMinMax minMax write:
    min(mag(U)) = 0 in cell 36960 at location (0.000485708 0 0.05)
    max(mag(U)) = 75.2963 in cell 95 at location (-0.000598615 4.51172e-06 0.05)

Time = 59.75

smoothSolver:  Solving for Ux, Initial residual = 9.27038e-11, Final residual = 9.27038e-11, No Iterations 0
smoothSolver:  Solving for Uy, Initial residual = 4.2603e-10, Final residual = 4.47981e-12, No Iterations 1
GAMG:  Solving for p, Initial residual = 1.85973e-08, Final residual = 4.84847e-12, No Iterations 1
time step continuity errors : sum local = 5.10501e-14, global = -1.08553e-14, cumulative = 4.95052e-07
ExecutionTime = 1539.5 s  ClockTime = 1653 s

fieldMinMax minMax write:
    min(mag(U)) = 0 in cell 36960 at location (0.000485708 0 0.05)
    max(mag(U)) = 75.2963 in cell 95 at location (-0.000598615 4.51172e-06 0.05)

Time = 59.76

smoothSolver:  Solving for Ux, Initial residual = 1.26075e-10, Final residual = 1.50026e-12, No Iterations 1
smoothSolver:  Solving for Uy, Initial residual = 5.55462e-10, Final residual = 6.09805e-12, No Iterations 1
GAMG:  Solving for p, Initial residual = 4.76546e-09, Final residual = 2.28704e-12, No Iterations 1
time step continuity errors : sum local = 2.93066e-14, global = -9.19252e-15, cumulative = 4.95052e-07
ExecutionTime = 1539.68 s  ClockTime = 1654 s

fieldMinMax minMax write:
    min(mag(U)) = 0 in cell 36960 at location (0.000485708 0 0.05)
    max(mag(U)) = 75.2963 in cell 95 at location (-0.000598615 4.51172e-06 0.05)

Time = 59.77

smoothSolver:  Solving for Ux, Initial residual = 6.52398e-11, Final residual = 6.52398e-11, No Iterations 0
smoothSolver:  Solving for Uy, Initial residual = 3.66844e-10, Final residual = 4.11836e-12, No Iterations 1
GAMG:  Solving for p, Initial residual = 1.36394e-08, Final residual = 3.42531e-12, No Iterations 1
time step continuity errors : sum local = 3.91593e-14, global = -7.44566e-15, cumulative = 4.95052e-07
ExecutionTime = 1539.85 s  ClockTime = 1654 s

fieldMinMax minMax write:
    min(mag(U)) = 0 in cell 36960 at location (0.000485708 0 0.05)
    max(mag(U)) = 75.2963 in cell 95 at location (-0.000598615 4.51172e-06 0.05)

Time = 59.78

smoothSolver:  Solving for Ux, Initial residual = 8.91287e-11, Final residual = 8.91287e-11, No Iterations 0
smoothSolver:  Solving for Uy, Initial residual = 4.13026e-10, Final residual = 4.78498e-12, No Iterations 1
GAMG:  Solving for p, Initial residual = 1.99846e-08, Final residual = 4.39204e-12, No Iterations 1
time step continuity errors : sum local = 4.75337e-14, global = -7.33958e-15, cumulative = 4.95052e-07
ExecutionTime = 1540.03 s  ClockTime = 1654 s

fieldMinMax minMax write:
    min(mag(U)) = 0 in cell 36960 at location (0.000485708 0 0.05)
    max(mag(U)) = 75.2963 in cell 95 at location (-0.000598615 4.51172e-06 0.05)

Time = 59.79

smoothSolver:  Solving for Ux, Initial residual = 1.30436e-10, Final residual = 1.49063e-12, No Iterations 1
smoothSolver:  Solving for Uy, Initial residual = 5.64015e-10, Final residual = 6.11854e-12, No Iterations 1
GAMG:  Solving for p, Initial residual = 5.15125e-09, Final residual = 2.364e-12, No Iterations 1
time step continuity errors : sum local = 3.02536e-14, global = -9.08674e-15, cumulative = 4.95052e-07
ExecutionTime = 1540.22 s  ClockTime = 1654 s

fieldMinMax minMax write:
    min(mag(U)) = 0 in cell 36960 at location (0.000485708 0 0.05)
    max(mag(U)) = 75.2963 in cell 95 at location (-0.000598615 4.51172e-06 0.05)

Time = 59.8

smoothSolver:  Solving for Ux, Initial residual = 6.95076e-11, Final residual = 6.95076e-11, No Iterations 0
smoothSolver:  Solving for Uy, Initial residual = 3.8337e-10, Final residual = 4.02683e-12, No Iterations 1
GAMG:  Solving for p, Initial residual = 1.34424e-08, Final residual = 3.71918e-12, No Iterations 1
time step continuity errors : sum local = 4.15958e-14, global = -9.8574e-15, cumulative = 4.95052e-07
ExecutionTime = 1540.41 s  ClockTime = 1654 s

fieldMinMax minMax write:
    min(mag(U)) = 0 in cell 36960 at location (0.000485708 0 0.05)
    max(mag(U)) = 75.2963 in cell 95 at location (-0.000598615 4.51172e-06 0.05)

Time = 59.81

smoothSolver:  Solving for Ux, Initial residual = 9.53878e-11, Final residual = 9.53878e-11, No Iterations 0
smoothSolver:  Solving for Uy, Initial residual = 4.42729e-10, Final residual = 4.75904e-12, No Iterations 1
GAMG:  Solving for p, Initial residual = 1.97337e-08, Final residual = 4.24539e-12, No Iterations 1
time step continuity errors : sum local = 4.59139e-14, global = -8.01722e-15, cumulative = 4.95052e-07
ExecutionTime = 1540.59 s  ClockTime = 1655 s

fieldMinMax minMax write:
    min(mag(U)) = 0 in cell 36960 at location (0.000485708 0 0.05)
    max(mag(U)) = 75.2963 in cell 95 at location (-0.000598615 4.51172e-06 0.05)

Time = 59.82

smoothSolver:  Solving for Ux, Initial residual = 1.27538e-10, Final residual = 1.60174e-12, No Iterations 1
smoothSolver:  Solving for Uy, Initial residual = 5.63291e-10, Final residual = 6.50467e-12, No Iterations 1
GAMG:  Solving for p, Initial residual = 4.98876e-09, Final residual = 2.27824e-12, No Iterations 1
time step continuity errors : sum local = 2.93266e-14, global = -7.50864e-15, cumulative = 4.95052e-07
ExecutionTime = 1540.77 s  ClockTime = 1655 s

fieldMinMax minMax write:
    min(mag(U)) = 0 in cell 36960 at location (0.000485708 0 0.05)
    max(mag(U)) = 75.2963 in cell 95 at location (-0.000598615 4.51172e-06 0.05)

Time = 59.83

smoothSolver:  Solving for Ux, Initial residual = 6.66982e-11, Final residual = 6.66982e-11, No Iterations 0
smoothSolver:  Solving for Uy, Initial residual = 3.72156e-10, Final residual = 4.31013e-12, No Iterations 1
GAMG:  Solving for p, Initial residual = 1.44498e-08, Final residual = 3.39824e-12, No Iterations 1
time step continuity errors : sum local = 3.9098e-14, global = -7.60306e-15, cumulative = 4.95052e-07
ExecutionTime = 1540.94 s  ClockTime = 1655 s

fieldMinMax minMax write:
    min(mag(U)) = 0 in cell 36960 at location (0.000485708 0 0.05)
    max(mag(U)) = 75.2963 in cell 95 at location (-0.000598615 4.51172e-06 0.05)

Time = 59.84

smoothSolver:  Solving for Ux, Initial residual = 9.69672e-11, Final residual = 9.69672e-11, No Iterations 0
smoothSolver:  Solving for Uy, Initial residual = 4.40844e-10, Final residual = 4.88559e-12, No Iterations 1
GAMG:  Solving for p, Initial residual = 2.03611e-08, Final residual = 4.56006e-12, No Iterations 1
time step continuity errors : sum local = 4.8648e-14, global = -1.02765e-14, cumulative = 4.95052e-07
ExecutionTime = 1541.11 s  ClockTime = 1655 s

fieldMinMax minMax write:
    min(mag(U)) = 0 in cell 36960 at location (0.000485708 0 0.05)
    max(mag(U)) = 75.2963 in cell 95 at location (-0.000598615 4.51172e-06 0.05)

Time = 59.85

smoothSolver:  Solving for Ux, Initial residual = 1.38021e-10, Final residual = 1.54023e-12, No Iterations 1
smoothSolver:  Solving for Uy, Initial residual = 5.98267e-10, Final residual = 6.30697e-12, No Iterations 1
GAMG:  Solving for p, Initial residual = 5.25897e-09, Final residual = 2.70885e-12, No Iterations 1
time step continuity errors : sum local = 3.27664e-14, global = -9.87872e-15, cumulative = 4.95052e-07
ExecutionTime = 1541.28 s  ClockTime = 1655 s

fieldMinMax minMax write:
    min(mag(U)) = 0 in cell 36960 at location (0.000485708 0 0.05)
    max(mag(U)) = 75.2963 in cell 95 at location (-0.000598615 4.51172e-06 0.05)

Time = 59.86

smoothSolver:  Solving for Ux, Initial residual = 7.21097e-11, Final residual = 7.21097e-11, No Iterations 0
smoothSolver:  Solving for Uy, Initial residual = 4.00313e-10, Final residual = 4.24068e-12, No Iterations 1
GAMG:  Solving for p, Initial residual = 1.40225e-08, Final residual = 3.42263e-12, No Iterations 1
time step continuity errors : sum local = 3.88966e-14, global = -8.11444e-15, cumulative = 4.95052e-07
ExecutionTime = 1541.46 s  ClockTime = 1655 s

fieldMinMax minMax write:
    min(mag(U)) = 0 in cell 36960 at location (0.000485708 0 0.05)
    max(mag(U)) = 75.2963 in cell 95 at location (-0.000598615 4.51172e-06 0.05)

Time = 59.87

smoothSolver:  Solving for Ux, Initial residual = 9.6398e-11, Final residual = 9.6398e-11, No Iterations 0
smoothSolver:  Solving for Uy, Initial residual = 4.48824e-10, Final residual = 5.12734e-12, No Iterations 1
GAMG:  Solving for p, Initial residual = 2.13771e-08, Final residual = 4.76771e-12, No Iterations 1
time step continuity errors : sum local = 5.03595e-14, global = -5.60218e-15, cumulative = 4.95052e-07
ExecutionTime = 1541.63 s  ClockTime = 1656 s

fieldMinMax minMax write:
    min(mag(U)) = 0 in cell 36960 at location (0.000485708 0 0.05)
    max(mag(U)) = 75.2963 in cell 95 at location (-0.000598615 4.51172e-06 0.05)

Time = 59.88

smoothSolver:  Solving for Ux, Initial residual = 1.33413e-10, Final residual = 1.65262e-12, No Iterations 1
smoothSolver:  Solving for Uy, Initial residual = 5.79599e-10, Final residual = 6.73121e-12, No Iterations 1
GAMG:  Solving for p, Initial residual = 5.40758e-09, Final residual = 2.4038e-12, No Iterations 1
time step continuity errors : sum local = 3.05664e-14, global = -7.29057e-15, cumulative = 4.95052e-07
ExecutionTime = 1541.8 s  ClockTime = 1656 s

fieldMinMax minMax write:
    min(mag(U)) = 0 in cell 36960 at location (0.000485708 0 0.05)
    max(mag(U)) = 75.2963 in cell 95 at location (-0.000598615 4.51172e-06 0.05)

Time = 59.89

smoothSolver:  Solving for Ux, Initial residual = 7.19935e-11, Final residual = 7.19935e-11, No Iterations 0
smoothSolver:  Solving for Uy, Initial residual = 3.94706e-10, Final residual = 4.4146e-12, No Iterations 1
GAMG:  Solving for p, Initial residual = 1.48316e-08, Final residual = 3.54541e-12, No Iterations 1
time step continuity errors : sum local = 4.03245e-14, global = -9.4594e-15, cumulative = 4.95052e-07
ExecutionTime = 1541.97 s  ClockTime = 1656 s

fieldMinMax minMax write:
    min(mag(U)) = 0 in cell 36960 at location (0.000485708 0 0.05)
    max(mag(U)) = 75.2963 in cell 95 at location (-0.000598615 4.51172e-06 0.05)

Time = 59.9

smoothSolver:  Solving for Ux, Initial residual = 1.03634e-10, Final residual = 1.16332e-12, No Iterations 1
smoothSolver:  Solving for Uy, Initial residual = 4.72023e-10, Final residual = 4.9949e-12, No Iterations 1
GAMG:  Solving for p, Initial residual = 4.06032e-09, Final residual = 2.17847e-12, No Iterations 1
time step continuity errors : sum local = 2.87521e-14, global = -9.33133e-15, cumulative = 4.95052e-07
ExecutionTime = 1542.15 s  ClockTime = 1656 s

fieldMinMax minMax write:
    min(mag(U)) = 0 in cell 36960 at location (0.000485708 0 0.05)
    max(mag(U)) = 75.2963 in cell 95 at location (-0.000598615 4.51172e-06 0.05)

Time = 59.91

smoothSolver:  Solving for Ux, Initial residual = 5.44039e-11, Final residual = 5.44039e-11, No Iterations 0
smoothSolver:  Solving for Uy, Initial residual = 3.17274e-10, Final residual = 3.34013e-12, No Iterations 1
GAMG:  Solving for p, Initial residual = 1.02434e-08, Final residual = 2.67394e-12, No Iterations 1
time step continuity errors : sum local = 3.29697e-14, global = -7.97377e-15, cumulative = 4.95052e-07
ExecutionTime = 1542.31 s  ClockTime = 1656 s

fieldMinMax minMax write:
    min(mag(U)) = 0 in cell 36960 at location (0.000485708 0 0.05)
    max(mag(U)) = 75.2963 in cell 95 at location (-0.000598615 4.51172e-06 0.05)

Time = 59.92

smoothSolver:  Solving for Ux, Initial residual = 7.30655e-11, Final residual = 7.30655e-11, No Iterations 0
smoothSolver:  Solving for Uy, Initial residual = 3.39896e-10, Final residual = 3.86843e-12, No Iterations 1
GAMG:  Solving for p, Initial residual = 1.53081e-08, Final residual = 3.73076e-12, No Iterations 1
time step continuity errors : sum local = 4.203e-14, global = -6.37714e-15, cumulative = 4.95052e-07
ExecutionTime = 1542.48 s  ClockTime = 1657 s

fieldMinMax minMax write:
    min(mag(U)) = 0 in cell 36960 at location (0.000485708 0 0.05)
    max(mag(U)) = 75.2963 in cell 95 at location (-0.000598615 4.51172e-06 0.05)

Time = 59.93

smoothSolver:  Solving for Ux, Initial residual = 9.94394e-11, Final residual = 9.94394e-11, No Iterations 0
smoothSolver:  Solving for Uy, Initial residual = 4.2466e-10, Final residual = 4.98344e-12, No Iterations 1
GAMG:  Solving for p, Initial residual = 2.18266e-08, Final residual = 4.5795e-12, No Iterations 1
time step continuity errors : sum local = 4.91944e-14, global = -7.04654e-15, cumulative = 4.95052e-07
ExecutionTime = 1542.64 s  ClockTime = 1657 s

fieldMinMax minMax write:
    min(mag(U)) = 0 in cell 36960 at location (0.000485708 0 0.05)
    max(mag(U)) = 75.2963 in cell 95 at location (-0.000598615 4.51172e-06 0.05)

Time = 59.94

smoothSolver:  Solving for Ux, Initial residual = 1.45723e-10, Final residual = 1.67353e-12, No Iterations 1
smoothSolver:  Solving for Uy, Initial residual = 6.00124e-10, Final residual = 6.60223e-12, No Iterations 1
GAMG:  Solving for p, Initial residual = 6.72115e-09, Final residual = 2.61578e-12, No Iterations 1
time step continuity errors : sum local = 3.25416e-14, global = -9.10959e-15, cumulative = 4.95052e-07
ExecutionTime = 1542.81 s  ClockTime = 1657 s

fieldMinMax minMax write:
    min(mag(U)) = 0 in cell 36960 at location (0.000485708 0 0.05)
    max(mag(U)) = 75.2963 in cell 95 at location (-0.000598615 4.51172e-06 0.05)

Time = 59.95

smoothSolver:  Solving for Ux, Initial residual = 7.76803e-11, Final residual = 7.76803e-11, No Iterations 0
smoothSolver:  Solving for Uy, Initial residual = 4.2698e-10, Final residual = 4.54833e-12, No Iterations 1
GAMG:  Solving for p, Initial residual = 1.59805e-08, Final residual = 4.00713e-12, No Iterations 1
time step continuity errors : sum local = 4.42243e-14, global = -9.79097e-15, cumulative = 4.95052e-07
ExecutionTime = 1542.98 s  ClockTime = 1657 s

fieldMinMax minMax write:
    min(mag(U)) = 0 in cell 36960 at location (0.000485708 0 0.05)
    max(mag(U)) = 75.2963 in cell 95 at location (-0.000598615 4.51172e-06 0.05)

Time = 59.96

smoothSolver:  Solving for Ux, Initial residual = 1.06912e-10, Final residual = 1.2609e-12, No Iterations 1
smoothSolver:  Solving for Uy, Initial residual = 5.07772e-10, Final residual = 5.50597e-12, No Iterations 1
GAMG:  Solving for p, Initial residual = 4.10414e-09, Final residual = 2.11992e-12, No Iterations 1
time step continuity errors : sum local = 2.81168e-14, global = -8.84873e-15, cumulative = 4.95052e-07
ExecutionTime = 1543.16 s  ClockTime = 1657 s

fieldMinMax minMax write:
    min(mag(U)) = 0 in cell 36960 at location (0.000485708 0 0.05)
    max(mag(U)) = 75.2963 in cell 95 at location (-0.000598615 4.51172e-06 0.05)

Time = 59.97

smoothSolver:  Solving for Ux, Initial residual = 5.53776e-11, Final residual = 5.53776e-11, No Iterations 0
smoothSolver:  Solving for Uy, Initial residual = 3.27271e-10, Final residual = 3.69058e-12, No Iterations 1
GAMG:  Solving for p, Initial residual = 1.0308e-08, Final residual = 2.84248e-12, No Iterations 1
time step continuity errors : sum local = 3.44973e-14, global = -7.67608e-15, cumulative = 4.95052e-07
ExecutionTime = 1543.33 s  ClockTime = 1657 s

fieldMinMax minMax write:
    min(mag(U)) = 0 in cell 36960 at location (0.000485708 0 0.05)
    max(mag(U)) = 75.2963 in cell 95 at location (-0.000598615 4.51172e-06 0.05)

Time = 59.98

smoothSolver:  Solving for Ux, Initial residual = 7.44168e-11, Final residual = 7.44168e-11, No Iterations 0
smoothSolver:  Solving for Uy, Initial residual = 3.33493e-10, Final residual = 3.92202e-12, No Iterations 1
GAMG:  Solving for p, Initial residual = 1.56934e-08, Final residual = 3.52939e-12, No Iterations 1
time step continuity errors : sum local = 4.03572e-14, global = -8.16668e-15, cumulative = 4.95052e-07
ExecutionTime = 1543.51 s  ClockTime = 1658 s

fieldMinMax minMax write:
    min(mag(U)) = 0 in cell 36960 at location (0.000485708 0 0.05)
    max(mag(U)) = 75.2963 in cell 95 at location (-0.000598615 4.51172e-06 0.05)

Time = 59.99

smoothSolver:  Solving for Ux, Initial residual = 1.08504e-10, Final residual = 1.27745e-12, No Iterations 1
smoothSolver:  Solving for Uy, Initial residual = 4.42956e-10, Final residual = 4.95792e-12, No Iterations 1
GAMG:  Solving for p, Initial residual = 5.05034e-09, Final residual = 2.24198e-12, No Iterations 1
time step continuity errors : sum local = 2.93973e-14, global = -9.07926e-15, cumulative = 4.95052e-07
ExecutionTime = 1543.68 s  ClockTime = 1658 s

fieldMinMax minMax write:
    min(mag(U)) = 0 in cell 36960 at location (0.000485708 0 0.05)
    max(mag(U)) = 75.2963 in cell 95 at location (-0.000598615 4.51172e-06 0.05)

Time = 60

smoothSolver:  Solving for Ux, Initial residual = 5.81391e-11, Final residual = 5.81391e-11, No Iterations 0
smoothSolver:  Solving for Uy, Initial residual = 3.15547e-10, Final residual = 3.43241e-12, No Iterations 1
GAMG:  Solving for p, Initial residual = 1.24522e-08, Final residual = 3.26357e-12, No Iterations 1
time step continuity errors : sum local = 3.79677e-14, global = -9.27234e-15, cumulative = 4.95052e-07
ExecutionTime = 1544.19 s  ClockTime = 1659 s

fieldMinMax minMax write:
    min(mag(U)) = 0 in cell 36960 at location (0.000485708 0 0.05)
    max(mag(U)) = 75.2963 in cell 95 at location (-0.000598615 4.51172e-06 0.05)

yPlus yPlus write:
    writing field yPlus
    patch topWall y+ : min = 0.0506126, max = 0.496341, average = 0.433222
    patch bottomWall y+ : min = 0.231529, max = 2.25823, average = 0.408425
writeCellCentres writeCellCentres write:
    writing cell-volumes field C to 60
    Writing the x component field of the cell-centres Cx to 60
    Writing the y component field of the cell-centres Cy to 60
    Writing the z component field of the cell-centres Cz to 60
wallShearStress wallShearStress write:
    writing field wallShearStress
    min/max(topWall) = (-1.85414e-09 -9.63548e-07 0), (1.06271e-08 -1.047e-08 0)
    min/max(bottomWall) = (-48.2616 -0.931068 0), (-0.507347 -2.58278e-07 0)
End

